
#======================================================================
# CRYSTAL DATA
#----------------------------------------------------------------------
data_VESTA_phase_1

_chemical_name_common                  'Sm9 Co27                              '
_cell_length_a                         5.001521
_cell_length_b                         5.048557
_cell_length_c                         24.644758
_cell_angle_alpha                      90.081223
_cell_angle_beta                       90.000000
_cell_angle_gamma                      119.692284
_cell_volume                           540.582864
_space_group_name_H-M_alt              'P 1'
_space_group_IT_number                 1

loop_
_space_group_symop_operation_xyz
   'x, y, z'

loop_
   _atom_site_label
   _atom_site_occupancy
   _atom_site_fract_x
   _atom_site_fract_y
   _atom_site_fract_z
   _atom_site_adp_type
   _atom_site_U_iso_or_equiv
   _atom_site_type_symbol
   Sm1        1.0     0.000127     0.000253    -0.000202    Uiso  ? Sm
   Sm2        1.0     0.670142     0.340284     0.330904    Uiso  ? Sm
   Sm3        1.0     0.333130     0.666260     0.667755    Uiso  ? Sm
   Sm4        1.0     0.668152     0.336304     0.192540    Uiso  ? Sm
   Sm5        1.0     0.000882     0.001764     0.139334    Uiso  ? Sm
   Sm6        1.0     0.329690     0.659379     0.529013    Uiso  ? Sm
   Sm7        1.0     0.659808     0.319617     0.476267    Uiso  ? Sm
   Sm8        1.0     0.000328     0.000656     0.860294    Uiso  ? Sm
   Sm9        1.0     0.333214     0.666428     0.806917    Uiso  ? Sm
   Co1        1.0     0.335202     0.670404     0.165460    Uiso  ? Co
   Co2        1.0    -0.007736    -0.015473     0.500596    Uiso  ? Co
   Co3        1.0     0.666602     0.333204     0.833863    Uiso  ? Co
   Co4        1.0     0.357909     0.715817     0.332595    Uiso  ? Co
   Co5        1.0     0.332041     0.664082     0.000555    Uiso  ? Co
   Co6        1.0    -0.000192    -0.000384     0.667369    Uiso  ? Co
   Co7        1.0    -0.018487    -0.036974     0.330334    Uiso  ? Co
   Co8        1.0     0.668422     0.336845     0.998879    Uiso  ? Co
   Co9        1.0     0.665807     0.331613     0.667574    Uiso  ? Co
   Co10       1.0     0.660192     0.830970     0.251113    Uiso  ? Co
   Co11       1.0     0.166511     0.333022     0.254898    Uiso  ? Co
   Co12       1.0     0.170778     0.830970     0.251113    Uiso  ? Co
   Co13       1.0     0.000491     0.500666     0.079864    Uiso  ? Co
   Co14       1.0     0.499916    -0.000167     0.079375    Uiso  ? Co
   Co15       1.0     0.500175     0.500666     0.079864    Uiso  ? Co
   Co16       1.0     0.331086     0.162070     0.587649    Uiso  ? Co
   Co17       1.0     0.835505     0.671010     0.587528    Uiso  ? Co
   Co18       1.0     0.830984     0.162070     0.587649    Uiso  ? Co
   Co19       1.0     0.675272     0.838280     0.414445    Uiso  ? Co
   Co20       1.0     0.163008     0.838280     0.414445    Uiso  ? Co
   Co21       1.0    -0.000095     0.500054     0.919651    Uiso  ? Co
   Co22       1.0     0.499938    -0.000124     0.920083    Uiso  ? Co
   Co23       1.0     0.500148     0.500054     0.919651    Uiso  ? Co
   Co24       1.0     0.334785     0.167840     0.747573    Uiso  ? Co
   Co25       1.0     0.832903     0.665805     0.747300    Uiso  ? Co
   Co26       1.0     0.833055     0.167840     0.747573    Uiso  ? Co
   Zn1        1.0     0.170308     0.340617     0.410181    Uiso  ? Zn
