
#======================================================================
# CRYSTAL DATA
#----------------------------------------------------------------------
data_VESTA_phase_1

_chemical_name_common                  'Sm9 Co27                              '
_cell_length_a                         5.024591
_cell_length_b                         5.024591
_cell_length_c                         24.718294
_cell_angle_alpha                      90.000000
_cell_angle_beta                       90.000000
_cell_angle_gamma                      120.000000
_cell_volume                           540.443819
_space_group_name_H-M_alt              'P 1'
_space_group_IT_number                 1

loop_
_space_group_symop_operation_xyz
   'x, y, z'

loop_
   _atom_site_label
   _atom_site_occupancy
   _atom_site_fract_x
   _atom_site_fract_y
   _atom_site_fract_z
   _atom_site_adp_type
   _atom_site_U_iso_or_equiv
   _atom_site_type_symbol
   Sm1        1.0     -0.000000     -0.000000     0.002106    Uiso  ? Sm
   Sm2        1.0     0.666667     0.333333     0.333333    Uiso  ? Sm
   Sm3        1.0     0.333333     0.666667     0.664561    Uiso  ? Sm
   Sm4        1.0     0.666667     0.333333     0.194063    Uiso  ? Sm
   Sm5        1.0     -0.000000     -0.000000     0.140637    Uiso  ? Sm
   Sm6        1.0     0.333333     0.666667     0.526029    Uiso  ? Sm
   Sm7        1.0     0.666667     0.333333     0.472604    Uiso  ? Sm
   Sm8        1.0     -0.000000     -0.000000     0.864322    Uiso  ? Sm
   Sm9        1.0     0.333333     0.666667     0.802344    Uiso  ? Sm
   Co1        1.0     0.333333     0.666667     0.167979    Uiso  ? Co
   Co2        1.0     -0.000000     -0.000000     0.498688    Uiso  ? Co
   Co3        1.0     0.333333     0.666667     0.332314    Uiso  ? Co
   Co4        1.0     0.333333     0.666667     0.001372    Uiso  ? Co
   Co5        1.0     -0.000000     -0.000000     0.665295    Uiso  ? Co
   Co6        1.0     -0.000000     -0.000000     0.334353    Uiso  ? Co
   Co7        1.0     0.666667     0.333333     0.001860    Uiso  ? Co
   Co8        1.0     0.666667     0.333333     0.664806    Uiso  ? Co
   Co9        1.0     0.667143     0.833572     0.253558    Uiso  ? Co
   Co10       1.0     0.166428     0.332857     0.253558    Uiso  ? Co
   Co11       1.0     0.166428     0.833572     0.253558    Uiso  ? Co
   Co12       1.0     0.002700     0.501350     0.081478    Uiso  ? Co
   Co13       1.0     0.498650     0.997300     0.081478    Uiso  ? Co
   Co14       1.0     0.498650     0.501350     0.081478    Uiso  ? Co
   Co15       1.0     0.330634     0.165317     0.585189    Uiso  ? Co
   Co16       1.0     0.834683     0.669366     0.585189    Uiso  ? Co
   Co17       1.0     0.834683     0.165317     0.585189    Uiso  ? Co
   Co18       1.0     0.666190     0.833095     0.413108    Uiso  ? Co
   Co19       1.0     0.166905     0.333810     0.413108    Uiso  ? Co
   Co20       1.0     0.166905     0.833095     0.413108    Uiso  ? Co
   Co21       1.0     0.001737     0.500868     0.922133    Uiso  ? Co
   Co22       1.0     0.499132     0.998263     0.922133    Uiso  ? Co
   Co23       1.0     0.499132     0.500868     0.922133    Uiso  ? Co
   Co24       1.0     0.331596     0.165798     0.744533    Uiso  ? Co
   Co25       1.0     0.834202     0.668404     0.744533    Uiso  ? Co
   Co26       1.0     0.834202     0.165798     0.744533    Uiso  ? Co
   Zn1        1.0     0.666667     0.333333     0.833333    Uiso  ? Zn
