
#======================================================================
# CRYSTAL DATA
#----------------------------------------------------------------------
data_VESTA_phase_1

_chemical_name_common                  'Sm6 Co51                              '
_cell_length_a                         8.344051
_cell_length_b                         8.337931
_cell_length_c                         12.160754
_cell_angle_alpha                      89.950554
_cell_angle_beta                       90.002327
_cell_angle_gamma                      120.023201
_cell_volume                           732.528632
_space_group_name_H-M_alt              'P 1'
_space_group_IT_number                 1

loop_
_space_group_symop_operation_xyz
   'x, y, z'

loop_
   _atom_site_label
   _atom_site_occupancy
   _atom_site_fract_x
   _atom_site_fract_y
   _atom_site_fract_z
   _atom_site_adp_type
   _atom_site_U_iso_or_equiv
   _atom_site_type_symbol
   Sm1        1.0     0.333485     0.666940     0.010851    Uiso  ? Sm
   Sm2        1.0     0.666884     0.333395    -0.011268    Uiso  ? Sm
   Sm3        1.0     0.333460     0.666851     0.322448    Uiso  ? Sm
   Sm4        1.0    -0.000052    -0.000235     0.344212    Uiso  ? Sm
   Sm5        1.0    -0.000130    -0.000296     0.656013    Uiso  ? Sm
   Sm6        1.0     0.666855     0.333281     0.677724    Uiso  ? Sm
   Co1        1.0     0.000345    -0.000195     0.095493    Uiso  ? Co
   Co2        1.0     0.665514     0.332931     0.237604    Uiso  ? Co
   Co3        1.0     0.665847     0.333918     0.428976    Uiso  ? Co
   Co4        1.0     0.334031     0.666942     0.571018    Uiso  ? Co
   Co5        1.0     0.333087     0.666401     0.762935    Uiso  ? Co
   Co6        1.0     0.000009     0.000222     0.903867    Uiso  ? Co
   Co7        1.0     0.833211     0.167386     0.166669    Uiso  ? Co
   Co8        1.0     0.334842     0.166667     0.164890    Uiso  ? Co
   Co9        1.0     0.833926     0.666982     0.166725    Uiso  ? Co
   Co10       1.0     0.501583     0.500013     0.501753    Uiso  ? Co
   Co11       1.0    -0.001129     0.499122     0.499954    Uiso  ? Co
   Co12       1.0     0.500405    -0.000160     0.499920    Uiso  ? Co
   Co13       1.0     0.165851     0.333228     0.833381    Uiso  ? Co
   Co14       1.0     0.166556     0.833368     0.832842    Uiso  ? Co
   Co15       1.0     0.666656     0.833379     0.833890    Uiso  ? Co
   Co16       1.0    -0.000011     0.713706    -0.000236    Uiso  ? Co
   Co17       1.0    -0.000638     0.286671     0.000046    Uiso  ? Co
   Co18       1.0     0.287042    -0.000585    -0.000056    Uiso  ? Co
   Co19       1.0     0.286075     0.285541    -0.001940    Uiso  ? Co
   Co20       1.0     0.712717     0.712472     0.000518    Uiso  ? Co
   Co21       1.0     0.713753    -0.000004    -0.000146    Uiso  ? Co
   Co22       1.0     0.379136     0.040046     0.332502    Uiso  ? Co
   Co23       1.0     0.666737     0.047039     0.333065    Uiso  ? Co
   Co24       1.0     0.672442     0.626779     0.334166    Uiso  ? Co
   Co25       1.0     0.956185     0.333296     0.333379    Uiso  ? Co
   Co26       1.0     0.952924     0.619583     0.333584    Uiso  ? Co
   Co27       1.0     0.047185     0.666693     0.666809    Uiso  ? Co
   Co28       1.0     0.046295     0.380181     0.666656    Uiso  ? Co
   Co29       1.0     0.333524     0.954047     0.666117    Uiso  ? Co
   Co30       1.0     0.333812     0.381127     0.668589    Uiso  ? Co
   Co31       1.0     0.620770     0.667162     0.666757    Uiso  ? Co
   Co32       1.0     0.619525     0.952854     0.666910    Uiso  ? Co
   Co33       1.0     0.995413     0.498421     0.154429    Uiso  ? Co
   Co34       1.0     0.503209     0.004885     0.153271    Uiso  ? Co
   Co35       1.0     0.503170     0.498046     0.153548    Uiso  ? Co
   Co36       1.0     0.671048     0.835810     0.178942    Uiso  ? Co
   Co37       1.0     0.163892     0.329696     0.174760    Uiso  ? Co
   Co38       1.0     0.164529     0.835810     0.178894    Uiso  ? Co
   Co39       1.0     0.662007     0.830791     0.487788    Uiso  ? Co
   Co40       1.0     0.167405     0.336830     0.491929    Uiso  ? Co
   Co41       1.0     0.168677     0.830801     0.487689    Uiso  ? Co
   Co42       1.0     0.338379     0.168591     0.513180    Uiso  ? Co
   Co43       1.0     0.831758     0.662020     0.513474    Uiso  ? Co
   Co44       1.0     0.830342     0.168155     0.512378    Uiso  ? Co
   Co45       1.0     0.328842     0.164565     0.820573    Uiso  ? Co
   Co46       1.0     0.835440     0.671142     0.820867    Uiso  ? Co
   Co47       1.0     0.835241     0.164165     0.820362    Uiso  ? Co
   Co48       1.0     0.004530     0.502624     0.846239    Uiso  ? Co
   Co49       1.0     0.497558     0.995376     0.845724    Uiso  ? Co
   Co50       1.0     0.497558     0.502178     0.846014    Uiso  ? Co
   Cu1        1.0     0.372295     0.333348     0.333322    Uiso  ? Cu
