
#======================================================================
# CRYSTAL DATA
#----------------------------------------------------------------------
data_VESTA_phase_1

_chemical_name_common                  'Sm6 Co51                              '
_cell_length_a                         8.344049
_cell_length_b                         8.344049
_cell_length_c                         12.126423
_cell_angle_alpha                      90.019211
_cell_angle_beta                       89.980789
_cell_angle_gamma                      119.860687
_cell_volume                           732.192040
_space_group_name_H-M_alt              'P 1'
_space_group_IT_number                 1

loop_
_space_group_symop_operation_xyz
   'x, y, z'

loop_
   _atom_site_label
   _atom_site_occupancy
   _atom_site_fract_x
   _atom_site_fract_y
   _atom_site_fract_z
   _atom_site_adp_type
   _atom_site_U_iso_or_equiv
   _atom_site_type_symbol
   Sm1        1.0     0.333367     0.666633     0.010595    Uiso  ? Sm
   Sm2        1.0     0.665733     0.334267    -0.011083    Uiso  ? Sm
   Sm3        1.0     0.332530     0.667470     0.322944    Uiso  ? Sm
   Sm4        1.0     0.000606    -0.000606     0.345203    Uiso  ? Sm
   Sm5        1.0     0.000086    -0.000086     0.655647    Uiso  ? Sm
   Sm6        1.0     0.666682     0.333318     0.677523    Uiso  ? Sm
   Co1        1.0     0.000091    -0.000091     0.095604    Uiso  ? Co
   Co2        1.0     0.669429     0.330571     0.238411    Uiso  ? Co
   Co3        1.0     0.666450     0.333550     0.429535    Uiso  ? Co
   Co4        1.0     0.333254     0.666746     0.570824    Uiso  ? Co
   Co5        1.0     0.333227     0.666773     0.762884    Uiso  ? Co
   Co6        1.0    -0.000237     0.000237     0.903575    Uiso  ? Co
   Co7        1.0     0.833423     0.166577     0.166478    Uiso  ? Co
   Co8        1.0     0.331495     0.164460     0.166562    Uiso  ? Co
   Co9        1.0     0.835540     0.668505     0.166562    Uiso  ? Co
   Co10       1.0     0.499835     0.500165     0.499954    Uiso  ? Co
   Co11       1.0    -0.000484     0.499859     0.500100    Uiso  ? Co
   Co12       1.0     0.500141     0.000484     0.500100    Uiso  ? Co
   Co13       1.0     0.166044     0.333108     0.833012    Uiso  ? Co
   Co14       1.0     0.166741     0.833259     0.833302    Uiso  ? Co
   Co15       1.0     0.666892     0.833956     0.833012    Uiso  ? Co
   Co16       1.0     0.001501     0.712747     0.000108    Uiso  ? Co
   Co17       1.0    -0.001241     0.287696     0.000080    Uiso  ? Co
   Co18       1.0     0.287253    -0.001501     0.000108    Uiso  ? Co
   Co19       1.0     0.280378     0.280627    -0.000997    Uiso  ? Co
   Co20       1.0     0.719373     0.719622    -0.000997    Uiso  ? Co
   Co21       1.0     0.712304     0.001241     0.000080    Uiso  ? Co
   Co22       1.0     0.379686     0.333069     0.333168    Uiso  ? Co
   Co23       1.0     0.382131     0.048139     0.333294    Uiso  ? Co
   Co24       1.0     0.667328     0.046943     0.333707    Uiso  ? Co
   Co25       1.0     0.666931     0.620314     0.333168    Uiso  ? Co
   Co26       1.0     0.953057     0.332672     0.333707    Uiso  ? Co
   Co27       1.0     0.951861     0.617869     0.333294    Uiso  ? Co
   Co28       1.0     0.047337     0.666708     0.666636    Uiso  ? Co
   Co29       1.0     0.047228     0.380441     0.666476    Uiso  ? Co
   Co30       1.0     0.333292     0.952663     0.666636    Uiso  ? Co
   Co31       1.0     0.333778     0.380536     0.666828    Uiso  ? Co
   Co32       1.0     0.619464     0.666222     0.666828    Uiso  ? Co
   Co33       1.0     0.619559     0.952772     0.666476    Uiso  ? Co
   Co34       1.0     0.995256     0.497275     0.153670    Uiso  ? Co
   Co35       1.0     0.502725     0.004745     0.153670    Uiso  ? Co
   Co36       1.0     0.676686     0.840134     0.181698    Uiso  ? Co
   Co37       1.0     0.159866     0.323314     0.181698    Uiso  ? Co
   Co38       1.0     0.164180     0.835820     0.179957    Uiso  ? Co
   Co39       1.0     0.661805     0.830890     0.487156    Uiso  ? Co
   Co40       1.0     0.169110     0.338195     0.487156    Uiso  ? Co
   Co41       1.0     0.169085     0.830915     0.486772    Uiso  ? Co
   Co42       1.0     0.337545     0.168992     0.512572    Uiso  ? Co
   Co43       1.0     0.831008     0.662455     0.512572    Uiso  ? Co
   Co44       1.0     0.831177     0.168823     0.513508    Uiso  ? Co
   Co45       1.0     0.328654     0.164257     0.819970    Uiso  ? Co
   Co46       1.0     0.835743     0.671346     0.819970    Uiso  ? Co
   Co47       1.0     0.835363     0.164637     0.820601    Uiso  ? Co
   Co48       1.0     0.004308     0.502379     0.846061    Uiso  ? Co
   Co49       1.0     0.497621     0.995692     0.846061    Uiso  ? Co
   Co50       1.0     0.497434     0.502566     0.847198    Uiso  ? Co
   Cu1        1.0     0.500369     0.499631     0.150365    Uiso  ? Cu
