
#======================================================================
# CRYSTAL DATA
#----------------------------------------------------------------------
data_VESTA_phase_1

_chemical_name_common                  'Sm9 Co27'
_cell_length_a                         5.009689
_cell_length_b                         5.009689
_cell_length_c                         24.756943
_cell_angle_alpha                      90.000000
_cell_angle_beta                       90.000000
_cell_angle_gamma                      120.000000
_cell_volume                           538.082953
_space_group_name_H-M_alt              'P 1'
_space_group_IT_number                 1

loop_
_space_group_symop_operation_xyz
   'x, y, z'

loop_
   _atom_site_label
   _atom_site_occupancy
   _atom_site_fract_x
   _atom_site_fract_y
   _atom_site_fract_z
   _atom_site_adp_type
   _atom_site_U_iso_or_equiv
   _atom_site_type_symbol
   Sm1        1.0     0.000000     0.000000     0.001315    Uiso  ? Sm
   Sm2        1.0     0.666667     0.333333     0.333333    Uiso  ? Sm
   Sm3        1.0     0.333333     0.666667     0.665352    Uiso  ? Sm
   Sm4        1.0     0.666667     0.333333     0.194062    Uiso  ? Sm
   Sm5        1.0     0.000000     0.000000     0.140372    Uiso  ? Sm
   Sm6        1.0     0.333333     0.666667     0.526294    Uiso  ? Sm
   Sm7        1.0     0.666667     0.333333     0.472605    Uiso  ? Sm
   Sm8        1.0     0.000000     0.000000     0.862917    Uiso  ? Sm
   Sm9        1.0     0.333333     0.666667     0.803750    Uiso  ? Sm
   Co1        1.0     0.333333     0.666667     0.167916    Uiso  ? Co
   Co2        1.0     0.000000     0.000000     0.498751    Uiso  ? Co
   Co3        1.0     0.333333     0.666667     0.332364    Uiso  ? Co
   Co4        1.0     0.333333     0.666667     0.001153    Uiso  ? Co
   Co5        1.0     0.000000     0.000000     0.665513    Uiso  ? Co
   Co6        1.0     0.000000     0.000000     0.334302    Uiso  ? Co
   Co7        1.0     0.666667     0.333333     0.002025    Uiso  ? Co
   Co8        1.0     0.666667     0.333333     0.664642    Uiso  ? Co
   Co9        1.0     0.667028     0.833514     0.253554    Uiso  ? Co
   Co10       1.0     0.166486     0.332972     0.253554    Uiso  ? Co
   Co11       1.0     0.166486     0.833514     0.253554    Uiso  ? Co
   Co12       1.0     0.002789     0.501395     0.081263    Uiso  ? Co
   Co13       1.0     0.498605     0.997211     0.081263    Uiso  ? Co
   Co14       1.0     0.498605     0.501395     0.081263    Uiso  ? Co
   Co15       1.0     0.330544     0.165272     0.585404    Uiso  ? Co
   Co16       1.0     0.834728     0.669456     0.585404    Uiso  ? Co
   Co17       1.0     0.834728     0.165272     0.585404    Uiso  ? Co
   Co18       1.0     0.666305     0.833152     0.413112    Uiso  ? Co
   Co19       1.0     0.166848     0.333695     0.413112    Uiso  ? Co
   Co20       1.0     0.166848     0.833152     0.413112    Uiso  ? Co
   Co21       1.0    -0.000257     0.499872     0.921852    Uiso  ? Co
   Co22       1.0     0.500128     0.000257     0.921852    Uiso  ? Co
   Co23       1.0     0.500128     0.499872     0.921852    Uiso  ? Co
   Co24       1.0     0.333590     0.166795     0.744815    Uiso  ? Co
   Co25       1.0     0.833205     0.666410     0.744815    Uiso  ? Co
   Co26       1.0     0.833205     0.166795     0.744815    Uiso  ? Co
   Cu1        1.0     0.666667     0.333333     0.833333    Uiso  ? Cu
