
#======================================================================
# CRYSTAL DATA
#----------------------------------------------------------------------
data_VESTA_phase_1

_chemical_name_common                  'Sm6 Co51                              '
_cell_length_a                         8.351255
_cell_length_b                         8.351255
_cell_length_c                         12.128872
_cell_angle_alpha                      90.000000
_cell_angle_beta                       90.000000
_cell_angle_gamma                      120.000000
_cell_volume                           732.579185
_space_group_name_H-M_alt              'P 1'
_space_group_IT_number                 1

loop_
_space_group_symop_operation_xyz
   'x, y, z'

loop_
   _atom_site_label
   _atom_site_occupancy
   _atom_site_fract_x
   _atom_site_fract_y
   _atom_site_fract_z
   _atom_site_adp_type
   _atom_site_U_iso_or_equiv
   _atom_site_type_symbol
   Sm1        1.0     0.333333     0.666667     0.010255    Uiso  ? Sm
   Sm2        1.0     0.666667     0.333333    -0.009941    Uiso  ? Sm
   Sm3        1.0     0.333333     0.666667     0.322329    Uiso  ? Sm
   Sm4        1.0     -0.000000     0.000000     0.344054    Uiso  ? Sm
   Sm5        1.0     -0.000000     0.000000     0.655338    Uiso  ? Sm
   Sm6        1.0     0.666667     0.333333     0.677462    Uiso  ? Sm
   Co1        1.0     -0.000000     0.000000     0.095835    Uiso  ? Co
   Co2        1.0     0.666667     0.333333     0.436575    Uiso  ? Co
   Co3        1.0     0.333333     0.666667     0.570418    Uiso  ? Co
   Co4        1.0     0.333333     0.666667     0.762354    Uiso  ? Co
   Co5        1.0     -0.000000     0.000000     0.903923    Uiso  ? Co
   Co6        1.0     0.835719     0.164281     0.167181    Uiso  ? Co
   Co7        1.0     0.328561     0.164281     0.167181    Uiso  ? Co
   Co8        1.0     0.835719     0.671439     0.167181    Uiso  ? Co
   Co9        1.0     0.499721     0.500279     0.500217    Uiso  ? Co
   Co10       1.0     0.000558     0.500279     0.500217    Uiso  ? Co
   Co11       1.0     0.499721    -0.000558     0.500217    Uiso  ? Co
   Co12       1.0     0.166340     0.332678     0.833346    Uiso  ? Co
   Co13       1.0     0.166340     0.833660     0.833346    Uiso  ? Co
   Co14       1.0     0.667321     0.833660     0.833346    Uiso  ? Co
   Co15       1.0    -0.000173     0.713183    -0.000355    Uiso  ? Co
   Co16       1.0    -0.000173     0.286645    -0.000355    Uiso  ? Co
   Co17       1.0     0.286817     0.000173    -0.000355    Uiso  ? Co
   Co18       1.0     0.286817     0.286645    -0.000355    Uiso  ? Co
   Co19       1.0     0.713355     0.713183    -0.000355    Uiso  ? Co
   Co20       1.0     0.713355     0.000173    -0.000355    Uiso  ? Co
   Co21       1.0     0.380920     0.332917     0.333726    Uiso  ? Co
   Co22       1.0     0.380920     0.048002     0.333726    Uiso  ? Co
   Co23       1.0     0.667083     0.048002     0.333726    Uiso  ? Co
   Co24       1.0     0.667083     0.619080     0.333726    Uiso  ? Co
   Co25       1.0     0.951998     0.332917     0.333726    Uiso  ? Co
   Co26       1.0     0.951998     0.619080     0.333726    Uiso  ? Co
   Co27       1.0     0.047378     0.666880     0.666550    Uiso  ? Co
   Co28       1.0     0.047378     0.380499     0.666550    Uiso  ? Co
   Co29       1.0     0.333120     0.952622     0.666550    Uiso  ? Co
   Co30       1.0     0.333120     0.380499     0.666550    Uiso  ? Co
   Co31       1.0     0.619501     0.666880     0.666550    Uiso  ? Co
   Co32       1.0     0.619501     0.952622     0.666550    Uiso  ? Co
   Co33       1.0    -0.000418     0.499791     0.154961    Uiso  ? Co
   Co34       1.0     0.500209     0.000418     0.154961    Uiso  ? Co
   Co35       1.0     0.500209     0.499791     0.154961    Uiso  ? Co
   Co36       1.0     0.669724     0.834862     0.178245    Uiso  ? Co
   Co37       1.0     0.165138     0.330276     0.178245    Uiso  ? Co
   Co38       1.0     0.165138     0.834862     0.178245    Uiso  ? Co
   Co39       1.0     0.662093     0.831046     0.485879    Uiso  ? Co
   Co40       1.0     0.168954     0.337907     0.485879    Uiso  ? Co
   Co41       1.0     0.168954     0.831046     0.485879    Uiso  ? Co
   Co42       1.0     0.337578     0.168789     0.513384    Uiso  ? Co
   Co43       1.0     0.831211     0.662422     0.513384    Uiso  ? Co
   Co44       1.0     0.831211     0.168789     0.513384    Uiso  ? Co
   Co45       1.0     0.329021     0.164511     0.820128    Uiso  ? Co
   Co46       1.0     0.835489     0.670979     0.820128    Uiso  ? Co
   Co47       1.0     0.835489     0.164511     0.820128    Uiso  ? Co
   Co48       1.0     0.004537     0.502269     0.845808    Uiso  ? Co
   Co49       1.0     0.497731     0.995463     0.845808    Uiso  ? Co
   Co50       1.0     0.497731     0.502269     0.845808    Uiso  ? Co
   Cu1        1.0     0.666667     0.333333     0.234427    Uiso  ? Cu
