
#======================================================================
# CRYSTAL DATA
#----------------------------------------------------------------------
data_VESTA_phase_1

_chemical_name_common                  'Sm9 Co27'
_cell_length_a                         5.016072
_cell_length_b                         5.016072
_cell_length_c                         24.676607
_cell_angle_alpha                      90.000000
_cell_angle_beta                       90.000000
_cell_angle_gamma                      120.000000
_cell_volume                           537.704371
_space_group_name_H-M_alt              'P 1'
_space_group_IT_number                 1

loop_
_space_group_symop_operation_xyz
   'x, y, z'

loop_
   _atom_site_label
   _atom_site_occupancy
   _atom_site_fract_x
   _atom_site_fract_y
   _atom_site_fract_z
   _atom_site_adp_type
   _atom_site_U_iso_or_equiv
   _atom_site_type_symbol
   Sm1        1.0     0.000000     0.000000     0.000180    Uiso  ? Sm
   Sm2        1.0     0.666667     0.333333     0.333191    Uiso  ? Sm
   Sm3        1.0     0.333333     0.666667     0.666814    Uiso  ? Sm
   Sm4        1.0     0.666667     0.333333     0.193646    Uiso  ? Sm
   Sm5        1.0     0.000000     0.000000     0.139770    Uiso  ? Sm
   Sm6        1.0     0.333333     0.666667     0.526597    Uiso  ? Sm
   Sm7        1.0     0.666667     0.333333     0.472604    Uiso  ? Sm
   Sm8        1.0     0.000000     0.000000     0.860706    Uiso  ? Sm
   Sm9        1.0     0.333333     0.666667     0.806621    Uiso  ? Sm
   Co1        1.0     0.333333     0.666667     0.166741    Uiso  ? Co
   Co2        1.0     0.000000     0.000000     0.499450    Uiso  ? Co
   Co3        1.0     0.666667     0.333333     0.834639    Uiso  ? Co
   Co4        1.0     0.333333     0.666667     0.332345    Uiso  ? Co
   Co5        1.0     0.333333     0.666667     0.001106    Uiso  ? Co
   Co6        1.0     0.000000     0.000000     0.666446    Uiso  ? Co
   Co7        1.0     0.000000     0.000000     0.334022    Uiso  ? Co
   Co8        1.0     0.666667     0.333333     0.999379    Uiso  ? Co
   Co9        1.0     0.666601     0.833301     0.253138    Uiso  ? Co
   Co10       1.0     0.166699     0.333399     0.253138    Uiso  ? Co
   Co11       1.0     0.166699     0.833301     0.253138    Uiso  ? Co
   Co12       1.0     0.000303     0.500151     0.080310    Uiso  ? Co
   Co13       1.0     0.499849     0.999697     0.080310    Uiso  ? Co
   Co14       1.0     0.499849     0.500151     0.080310    Uiso  ? Co
   Co15       1.0     0.330901     0.165451     0.585181    Uiso  ? Co
   Co16       1.0     0.834549     0.669099     0.585181    Uiso  ? Co
   Co17       1.0     0.834549     0.165451     0.585181    Uiso  ? Co
   Co18       1.0     0.666204     0.833102     0.413138    Uiso  ? Co
   Co19       1.0     0.166898     0.333796     0.413138    Uiso  ? Co
   Co20       1.0     0.166898     0.833102     0.413138    Uiso  ? Co
   Co21       1.0     0.000529     0.500265     0.920201    Uiso  ? Co
   Co22       1.0     0.499736     0.999471     0.920201    Uiso  ? Co
   Co23       1.0     0.499736     0.500265     0.920201    Uiso  ? Co
   Co24       1.0     0.333297     0.166648     0.747828    Uiso  ? Co
   Co25       1.0     0.833352     0.666703     0.747828    Uiso  ? Co
   Co26       1.0     0.833352     0.166648     0.747828    Uiso  ? Co
   Cu1        1.0     0.666667     0.333333     0.666357    Uiso  ? Cu
