
#======================================================================
# CRYSTAL DATA
#----------------------------------------------------------------------
data_VESTA_phase_1

_chemical_name_common                  'Sm6 Co51                              '
_cell_length_a                         8.338736
_cell_length_b                         8.338736
_cell_length_c                         12.146583
_cell_angle_alpha                      89.926567
_cell_angle_beta                       90.073433
_cell_angle_gamma                      119.880676
_cell_volume                           732.327939
_space_group_name_H-M_alt              'P 1'
_space_group_IT_number                 1

loop_
_space_group_symop_operation_xyz
   'x, y, z'

loop_
   _atom_site_label
   _atom_site_occupancy
   _atom_site_fract_x
   _atom_site_fract_y
   _atom_site_fract_z
   _atom_site_adp_type
   _atom_site_U_iso_or_equiv
   _atom_site_type_symbol
   Sm1        1.0     0.333769     0.666231     0.010303    Uiso  ? Sm
   Sm2        1.0     0.666366     0.333634    -0.010800    Uiso  ? Sm
   Sm3        1.0     0.332974     0.667026     0.323087    Uiso  ? Sm
   Sm4        1.0     0.000264    -0.000264     0.343878    Uiso  ? Sm
   Sm5        1.0     0.000127    -0.000127     0.655795    Uiso  ? Sm
   Sm6        1.0     0.666545     0.333455     0.677710    Uiso  ? Sm
   Co1        1.0     0.002608    -0.002608     0.095160    Uiso  ? Co
   Co2        1.0     0.664049     0.335951     0.238263    Uiso  ? Co
   Co3        1.0     0.667083     0.332917     0.429362    Uiso  ? Co
   Co4        1.0     0.333433     0.666567     0.570887    Uiso  ? Co
   Co5        1.0     0.333262     0.666738     0.762344    Uiso  ? Co
   Co6        1.0    -0.000341     0.000341     0.904128    Uiso  ? Co
   Co7        1.0     0.333369     0.166713     0.166607    Uiso  ? Co
   Co8        1.0     0.833287     0.666631     0.166607    Uiso  ? Co
   Co9        1.0     0.000072     0.500486     0.500072    Uiso  ? Co
   Co10       1.0     0.499514    -0.000072     0.500072    Uiso  ? Co
   Co11       1.0     0.499785     0.500215     0.500186    Uiso  ? Co
   Co12       1.0     0.167043     0.333353     0.833329    Uiso  ? Co
   Co13       1.0     0.166855     0.833145     0.833253    Uiso  ? Co
   Co14       1.0     0.666647     0.832957     0.833329    Uiso  ? Co
   Co15       1.0     0.001092     0.713084     0.000028    Uiso  ? Co
   Co16       1.0     0.000979     0.287989    -0.001449    Uiso  ? Co
   Co17       1.0     0.286916    -0.001092     0.000028    Uiso  ? Co
   Co18       1.0     0.285557     0.284917     0.000048    Uiso  ? Co
   Co19       1.0     0.715083     0.714443     0.000048    Uiso  ? Co
   Co20       1.0     0.712011    -0.000979    -0.001449    Uiso  ? Co
   Co21       1.0     0.379937     0.334409     0.333295    Uiso  ? Co
   Co22       1.0     0.381129     0.048471     0.333249    Uiso  ? Co
   Co23       1.0     0.665693     0.045439     0.334838    Uiso  ? Co
   Co24       1.0     0.665591     0.620063     0.333295    Uiso  ? Co
   Co25       1.0     0.954561     0.334307     0.334838    Uiso  ? Co
   Co26       1.0     0.951529     0.618871     0.333249    Uiso  ? Co
   Co27       1.0     0.047151     0.666801     0.666785    Uiso  ? Co
   Co28       1.0     0.046743     0.380035     0.666653    Uiso  ? Co
   Co29       1.0     0.333199     0.952849     0.666785    Uiso  ? Co
   Co30       1.0     0.333393     0.380412     0.666544    Uiso  ? Co
   Co31       1.0     0.619588     0.666607     0.666544    Uiso  ? Co
   Co32       1.0     0.619965     0.953257     0.666653    Uiso  ? Co
   Co33       1.0    -0.000797     0.500542     0.154112    Uiso  ? Co
   Co34       1.0     0.499458     0.000797     0.154112    Uiso  ? Co
   Co35       1.0     0.501934     0.498066     0.153222    Uiso  ? Co
   Co36       1.0     0.667358     0.832766     0.179237    Uiso  ? Co
   Co37       1.0     0.167235     0.332642     0.179237    Uiso  ? Co
   Co38       1.0     0.164802     0.835199     0.180068    Uiso  ? Co
   Co39       1.0     0.662072     0.831233     0.487295    Uiso  ? Co
   Co40       1.0     0.168767     0.337928     0.487295    Uiso  ? Co
   Co41       1.0     0.168502     0.831498     0.487138    Uiso  ? Co
   Co42       1.0     0.338161     0.169234     0.512568    Uiso  ? Co
   Co43       1.0     0.830766     0.661839     0.512568    Uiso  ? Co
   Co44       1.0     0.830944     0.169056     0.513629    Uiso  ? Co
   Co45       1.0     0.328562     0.164186     0.820859    Uiso  ? Co
   Co46       1.0     0.835814     0.671438     0.820859    Uiso  ? Co
   Co47       1.0     0.835751     0.164249     0.819851    Uiso  ? Co
   Co48       1.0     0.004773     0.502239     0.845861    Uiso  ? Co
   Co49       1.0     0.497761     0.995227     0.845861    Uiso  ? Co
   Co50       1.0     0.498020     0.501980     0.845984    Uiso  ? Co
   Cu1        1.0     0.833292     0.166708     0.166689    Uiso  ? Cu
