
#======================================================================
# CRYSTAL DATA
#----------------------------------------------------------------------
data_VESTA_phase_1

_chemical_name_common                  'Sm6 Co51                              '
_cell_length_a                         8.303664
_cell_length_b                         8.304058
_cell_length_c                         12.094725
_cell_angle_alpha                      90.001579
_cell_angle_beta                       90.000237
_cell_angle_gamma                      119.999092
_cell_volume                           722.255315
_space_group_name_H-M_alt              'P 1'
_space_group_IT_number                 1

loop_
_space_group_symop_operation_xyz
   'x, y, z'

loop_
   _atom_site_label
   _atom_site_occupancy
   _atom_site_fract_x
   _atom_site_fract_y
   _atom_site_fract_z
   _atom_site_adp_type
   _atom_site_U_iso_or_equiv
   _atom_site_type_symbol
   Sm1        1.0     0.333353     0.666696     0.014263    Uiso  ? Sm
   Sm2        1.0     0.666641     0.333303    -0.011611    Uiso  ? Sm
   Sm3        1.0     0.000001    -0.000005     0.344824    Uiso  ? Sm
   Sm4        1.0     0.000017     0.000025     0.655282    Uiso  ? Sm
   Sm5        1.0     0.666650     0.333319     0.677226    Uiso  ? Sm
   Co1        1.0    -0.000007    -0.000011     0.098187    Uiso  ? Co
   Co2        1.0     0.666659     0.333309     0.237260    Uiso  ? Co
   Co3        1.0     0.666662     0.333327     0.428950    Uiso  ? Co
   Co4        1.0     0.333321     0.666660     0.564766    Uiso  ? Co
   Co5        1.0     0.333348     0.666693     0.759915    Uiso  ? Co
   Co6        1.0    -0.000006    -0.000004     0.904732    Uiso  ? Co
   Co7        1.0     0.834267     0.165692     0.167025    Uiso  ? Co
   Co8        1.0     0.331430     0.165698     0.167025    Uiso  ? Co
   Co9        1.0     0.834289     0.668586     0.167018    Uiso  ? Co
   Co10       1.0     0.500521     0.499491     0.499152    Uiso  ? Co
   Co11       1.0    -0.001023     0.499492     0.499153    Uiso  ? Co
   Co12       1.0     0.500523     0.001058     0.499162    Uiso  ? Co
   Co13       1.0     0.166896     0.333783     0.833254    Uiso  ? Co
   Co14       1.0     0.166891     0.833112     0.833254    Uiso  ? Co
   Co15       1.0     0.666213     0.833106     0.833254    Uiso  ? Co
   Co16       1.0     0.000942     0.713721     0.001156    Uiso  ? Co
   Co17       1.0     0.000922     0.287208     0.001154    Uiso  ? Co
   Co18       1.0     0.286281    -0.000929     0.001156    Uiso  ? Co
   Co19       1.0     0.286291     0.287216     0.001152    Uiso  ? Co
   Co20       1.0     0.712773     0.713715     0.001158    Uiso  ? Co
   Co21       1.0     0.712781    -0.000934     0.001160    Uiso  ? Co
   Co22       1.0     0.377579     0.336502     0.332519    Uiso  ? Co
   Co23       1.0     0.377589     0.041068     0.332512    Uiso  ? Co
   Co24       1.0     0.663479     0.041067     0.332511    Uiso  ? Co
   Co25       1.0     0.663489     0.622394     0.332522    Uiso  ? Co
   Co26       1.0     0.958930     0.336498     0.332519    Uiso  ? Co
   Co27       1.0     0.958917     0.622401     0.332521    Uiso  ? Co
   Co28       1.0     0.046645     0.667415     0.665540    Uiso  ? Co
   Co29       1.0     0.046662     0.379284     0.665548    Uiso  ? Co
   Co30       1.0     0.332608     0.953347     0.665554    Uiso  ? Co
   Co31       1.0     0.332626     0.379293     0.665551    Uiso  ? Co
   Co32       1.0     0.620765     0.667413     0.665545    Uiso  ? Co
   Co33       1.0     0.620743     0.953346     0.665555    Uiso  ? Co
   Co34       1.0     0.993480     0.496730     0.153486    Uiso  ? Co
   Co35       1.0     0.503255     0.006512     0.153460    Uiso  ? Co
   Co36       1.0     0.503252     0.496733     0.153487    Uiso  ? Co
   Co37       1.0     0.660841     0.830410     0.185470    Uiso  ? Co
   Co38       1.0     0.169585     0.339160     0.185471    Uiso  ? Co
   Co39       1.0     0.169576     0.830416     0.185466    Uiso  ? Co
   Co40       1.0     0.655041     0.827520     0.481490    Uiso  ? Co
   Co41       1.0     0.172488     0.344961     0.481478    Uiso  ? Co
   Co42       1.0     0.172490     0.827529     0.481483    Uiso  ? Co
   Co43       1.0     0.336735     0.168369     0.512151    Uiso  ? Co
   Co44       1.0     0.831637     0.663283     0.512158    Uiso  ? Co
   Co45       1.0     0.831650     0.168378     0.512156    Uiso  ? Co
   Co46       1.0     0.329046     0.164511     0.821091    Uiso  ? Co
   Co47       1.0     0.835467     0.670945     0.821100    Uiso  ? Co
   Co48       1.0     0.835455     0.164505     0.821093    Uiso  ? Co
   Co49       1.0     0.004843     0.502425     0.845130    Uiso  ? Co
   Co50       1.0     0.497579     0.995169     0.845151    Uiso  ? Co
   Co51       1.0     0.497577     0.502419     0.845135    Uiso  ? Co
   Cu1        1.0     0.333337     0.666669     0.336121    Uiso  ? Cu
