
#======================================================================
# CRYSTAL DATA
#----------------------------------------------------------------------
data_VESTA_phase_1

_chemical_name_common                  'Sm6 Co51                              '
_cell_length_a                         8.343380
_cell_length_b                         8.344523
_cell_length_c                         12.150089
_cell_angle_alpha                      89.995163
_cell_angle_beta                       90.001137
_cell_angle_gamma                      119.995331
_cell_volume                           732.612107
_space_group_name_H-M_alt              'P 1'
_space_group_IT_number                 1

loop_
_space_group_symop_operation_xyz
   'x, y, z'

loop_
   _atom_site_label
   _atom_site_occupancy
   _atom_site_fract_x
   _atom_site_fract_y
   _atom_site_fract_z
   _atom_site_adp_type
   _atom_site_U_iso_or_equiv
   _atom_site_type_symbol
   Sm1        1.0     0.333207     0.666959     0.010783    Uiso  ? Sm
   Sm2        1.0     0.666774     0.333382    -0.011294    Uiso  ? Sm
   Sm3        1.0     0.334028     0.669286     0.322226    Uiso  ? Sm
   Sm4        1.0    -0.001898    -0.002609     0.344527    Uiso  ? Sm
   Sm5        1.0    -0.000418    -0.000342     0.656035    Uiso  ? Sm
   Sm6        1.0     0.666677     0.333280     0.677641    Uiso  ? Sm
   Co1        1.0    -0.000168    -0.000111     0.095568    Uiso  ? Co
   Co2        1.0     0.667431     0.332958     0.237491    Uiso  ? Co
   Co3        1.0     0.668031     0.333809     0.428986    Uiso  ? Co
   Co4        1.0     0.333220     0.666824     0.571035    Uiso  ? Co
   Co5        1.0     0.333308     0.666683     0.762716    Uiso  ? Co
   Co6        1.0    -0.000025    -0.000036     0.904062    Uiso  ? Co
   Co7        1.0     0.832946     0.166878     0.166565    Uiso  ? Co
   Co8        1.0     0.333016     0.166134     0.165935    Uiso  ? Co
   Co9        1.0     0.832873     0.666105     0.166475    Uiso  ? Co
   Co10       1.0     0.500227     0.500553     0.500759    Uiso  ? Co
   Co11       1.0    -0.000889     0.499682     0.500104    Uiso  ? Co
   Co12       1.0     0.500169     0.000815     0.500212    Uiso  ? Co
   Co13       1.0     0.166337     0.333229     0.833351    Uiso  ? Co
   Co14       1.0     0.166372     0.833441     0.833278    Uiso  ? Co
   Co15       1.0     0.666400     0.833288     0.833470    Uiso  ? Co
   Co16       1.0    -0.000116     0.713763    -0.000165    Uiso  ? Co
   Co17       1.0    -0.000132     0.286480    -0.000226    Uiso  ? Co
   Co18       1.0     0.287061     0.000087     0.000075    Uiso  ? Co
   Co19       1.0     0.286705     0.286362    -0.000477    Uiso  ? Co
   Co20       1.0     0.713027     0.713021    -0.000013    Uiso  ? Co
   Co21       1.0     0.713534     0.000076    -0.000246    Uiso  ? Co
   Co22       1.0     0.379556     0.044957     0.333199    Uiso  ? Co
   Co23       1.0     0.667736     0.047703     0.333560    Uiso  ? Co
   Co24       1.0     0.667949     0.621773     0.333487    Uiso  ? Co
   Co25       1.0     0.957270     0.333292     0.333399    Uiso  ? Co
   Co26       1.0     0.953395     0.619020     0.333114    Uiso  ? Co
   Co27       1.0     0.046901     0.666564     0.666905    Uiso  ? Co
   Co28       1.0     0.046822     0.380272     0.666867    Uiso  ? Co
   Co29       1.0     0.333314     0.953360     0.666698    Uiso  ? Co
   Co30       1.0     0.333620     0.380423     0.667144    Uiso  ? Co
   Co31       1.0     0.620074     0.666628     0.666605    Uiso  ? Co
   Co32       1.0     0.619426     0.952839     0.666827    Uiso  ? Co
   Co33       1.0     0.995579     0.497780     0.153918    Uiso  ? Co
   Co34       1.0     0.502489     0.005035     0.153678    Uiso  ? Co
   Co35       1.0     0.502270     0.498686     0.153747    Uiso  ? Co
   Co36       1.0     0.671129     0.835673     0.178951    Uiso  ? Co
   Co37       1.0     0.164086     0.329078     0.176894    Uiso  ? Co
   Co38       1.0     0.164225     0.835099     0.178944    Uiso  ? Co
   Co39       1.0     0.662274     0.831556     0.487666    Uiso  ? Co
   Co40       1.0     0.168295     0.337643     0.489778    Uiso  ? Co
   Co41       1.0     0.168803     0.830909     0.487713    Uiso  ? Co
   Co42       1.0     0.336798     0.167937     0.513000    Uiso  ? Co
   Co43       1.0     0.830758     0.661758     0.513082    Uiso  ? Co
   Co44       1.0     0.831141     0.168792     0.512890    Uiso  ? Co
   Co45       1.0     0.328830     0.164456     0.820563    Uiso  ? Co
   Co46       1.0     0.835464     0.671093     0.820571    Uiso  ? Co
   Co47       1.0     0.835283     0.164281     0.820256    Uiso  ? Co
   Co48       1.0     0.004403     0.502411     0.846329    Uiso  ? Co
   Co49       1.0     0.497637     0.995441     0.845996    Uiso  ? Co
   Co50       1.0     0.497623     0.502210     0.845992    Uiso  ? Co
   Fe1        1.0     0.379149     0.333331     0.333355    Uiso  ? Fe
