
#======================================================================
# CRYSTAL DATA
#----------------------------------------------------------------------
data_VESTA_phase_1

_chemical_name_common                  'Sm6 Co51                              '
_cell_length_a                         8.349258
_cell_length_b                         8.349258
_cell_length_c                         12.150341
_cell_angle_alpha                      89.969864
_cell_angle_beta                       90.030136
_cell_angle_gamma                      120.083946
_cell_volume                           732.903567
_space_group_name_H-M_alt              'P 1'
_space_group_IT_number                 1

loop_
_space_group_symop_operation_xyz
   'x, y, z'

loop_
   _atom_site_label
   _atom_site_occupancy
   _atom_site_fract_x
   _atom_site_fract_y
   _atom_site_fract_z
   _atom_site_adp_type
   _atom_site_U_iso_or_equiv
   _atom_site_type_symbol
   Sm1        1.0     0.332174     0.667826     0.010679    Uiso  ? Sm
   Sm2        1.0     0.667472     0.332528    -0.012008    Uiso  ? Sm
   Sm3        1.0     0.332522     0.667478     0.323056    Uiso  ? Sm
   Sm4        1.0    -0.000055     0.000055     0.344542    Uiso  ? Sm
   Sm5        1.0     0.000039    -0.000039     0.655622    Uiso  ? Sm
   Sm6        1.0     0.666633     0.333367     0.677559    Uiso  ? Sm
   Co1        1.0     0.000052    -0.000052     0.095552    Uiso  ? Co
   Co2        1.0     0.668092     0.331908     0.237725    Uiso  ? Co
   Co3        1.0     0.666564     0.333436     0.429463    Uiso  ? Co
   Co4        1.0     0.333366     0.666634     0.570838    Uiso  ? Co
   Co5        1.0     0.333377     0.666623     0.762540    Uiso  ? Co
   Co6        1.0    -0.000020     0.000020     0.903793    Uiso  ? Co
   Co7        1.0     0.834197     0.165803     0.166997    Uiso  ? Co
   Co8        1.0     0.332464     0.165558     0.166426    Uiso  ? Co
   Co9        1.0     0.834442     0.667536     0.166426    Uiso  ? Co
   Co10       1.0     0.499796     0.500204     0.500288    Uiso  ? Co
   Co11       1.0    -0.000320     0.499997     0.500214    Uiso  ? Co
   Co12       1.0     0.500003     0.000320     0.500214    Uiso  ? Co
   Co13       1.0     0.166295     0.333080     0.833191    Uiso  ? Co
   Co14       1.0     0.166724     0.833276     0.833142    Uiso  ? Co
   Co15       1.0     0.666920     0.833705     0.833191    Uiso  ? Co
   Co16       1.0     0.000141     0.713636    -0.000349    Uiso  ? Co
   Co17       1.0     0.000071     0.286455     0.000000    Uiso  ? Co
   Co18       1.0     0.286364    -0.000141    -0.000349    Uiso  ? Co
   Co19       1.0     0.286240     0.285897    -0.000719    Uiso  ? Co
   Co20       1.0     0.714103     0.713760    -0.000719    Uiso  ? Co
   Co21       1.0     0.713545    -0.000071     0.000000    Uiso  ? Co
   Co22       1.0     0.380309     0.332745     0.334123    Uiso  ? Co
   Co23       1.0     0.380510     0.046921     0.333163    Uiso  ? Co
   Co24       1.0     0.666790     0.046937     0.333650    Uiso  ? Co
   Co25       1.0     0.667255     0.619691     0.334123    Uiso  ? Co
   Co26       1.0     0.953063     0.333210     0.333650    Uiso  ? Co
   Co27       1.0     0.953079     0.619490     0.333163    Uiso  ? Co
   Co28       1.0     0.047094     0.666658     0.666610    Uiso  ? Co
   Co29       1.0     0.046829     0.380247     0.666693    Uiso  ? Co
   Co30       1.0     0.333342     0.952905     0.666610    Uiso  ? Co
   Co31       1.0     0.333214     0.380252     0.666787    Uiso  ? Co
   Co32       1.0     0.619748     0.666786     0.666787    Uiso  ? Co
   Co33       1.0     0.619753     0.953171     0.666693    Uiso  ? Co
   Co34       1.0     0.994924     0.497053     0.154242    Uiso  ? Co
   Co35       1.0     0.502947     0.005076     0.154242    Uiso  ? Co
   Co36       1.0     0.670591     0.835443     0.178902    Uiso  ? Co
   Co37       1.0     0.164557     0.329409     0.178902    Uiso  ? Co
   Co38       1.0     0.163847     0.836153     0.179537    Uiso  ? Co
   Co39       1.0     0.662000     0.831403     0.487504    Uiso  ? Co
   Co40       1.0     0.168597     0.338000     0.487504    Uiso  ? Co
   Co41       1.0     0.168924     0.831076     0.487336    Uiso  ? Co
   Co42       1.0     0.337678     0.169041     0.512533    Uiso  ? Co
   Co43       1.0     0.830959     0.662322     0.512533    Uiso  ? Co
   Co44       1.0     0.831070     0.168931     0.512940    Uiso  ? Co
   Co45       1.0     0.329005     0.164472     0.820119    Uiso  ? Co
   Co46       1.0     0.835528     0.670995     0.820119    Uiso  ? Co
   Co47       1.0     0.835521     0.164479     0.820451    Uiso  ? Co
   Co48       1.0     0.004541     0.502216     0.845762    Uiso  ? Co
   Co49       1.0     0.497784     0.995459     0.845762    Uiso  ? Co
   Co50       1.0     0.497531     0.502469     0.846381    Uiso  ? Co
   Fe1        1.0     0.501807     0.498193     0.155870    Uiso  ? Fe
