
#======================================================================
# CRYSTAL DATA
#----------------------------------------------------------------------
data_VESTA_phase_1

_chemical_name_common                  'Sm9 Co27'
_cell_length_a                         5.031641
_cell_length_b                         5.031641
_cell_length_c                         24.531851
_cell_angle_alpha                      90.000000
_cell_angle_beta                       90.000000
_cell_angle_gamma                      120.000000
_cell_volume                           537.873515
_space_group_name_H-M_alt              'P 1'
_space_group_IT_number                 1

loop_
_space_group_symop_operation_xyz
   'x, y, z'

loop_
   _atom_site_label
   _atom_site_occupancy
   _atom_site_fract_x
   _atom_site_fract_y
   _atom_site_fract_z
   _atom_site_adp_type
   _atom_site_U_iso_or_equiv
   _atom_site_type_symbol
   Sm1        1.0     0.000000     0.000000     0.000098    Uiso  ? Sm
   Sm2        1.0     0.666667     0.333333     0.333333    Uiso  ? Sm
   Sm3        1.0     0.333333     0.666667     0.666569    Uiso  ? Sm
   Sm4        1.0     0.666667     0.333333     0.193361    Uiso  ? Sm
   Sm5        1.0     0.000000     0.000000     0.139697    Uiso  ? Sm
   Sm6        1.0     0.333333     0.666667     0.526970    Uiso  ? Sm
   Sm7        1.0     0.666667     0.333333     0.473306    Uiso  ? Sm
   Sm8        1.0     0.000000     0.000000     0.860812    Uiso  ? Sm
   Sm9        1.0     0.333333     0.666667     0.805854    Uiso  ? Sm
   Co1        1.0     0.333333     0.666667     0.166706    Uiso  ? Co
   Co2        1.0     0.000000     0.000000     0.499961    Uiso  ? Co
   Co3        1.0     0.333333     0.666667     0.332564    Uiso  ? Co
   Co4        1.0     0.333333     0.666667    -0.000287    Uiso  ? Co
   Co5        1.0     0.000000     0.000000     0.666954    Uiso  ? Co
   Co6        1.0     0.000000     0.000000     0.334103    Uiso  ? Co
   Co7        1.0     0.666667     0.333333     0.998894    Uiso  ? Co
   Co8        1.0     0.666667     0.333333     0.667772    Uiso  ? Co
   Co9        1.0     0.666487     0.833244     0.253112    Uiso  ? Co
   Co10       1.0     0.166756     0.333513     0.253112    Uiso  ? Co
   Co11       1.0     0.166756     0.833244     0.253112    Uiso  ? Co
   Co12       1.0     0.001285     0.500642     0.079845    Uiso  ? Co
   Co13       1.0     0.499358     0.998715     0.079845    Uiso  ? Co
   Co14       1.0     0.499358     0.500642     0.079845    Uiso  ? Co
   Co15       1.0     0.332048     0.166024     0.586821    Uiso  ? Co
   Co16       1.0     0.833976     0.667952     0.586821    Uiso  ? Co
   Co17       1.0     0.833976     0.166024     0.586821    Uiso  ? Co
   Co18       1.0     0.666846     0.833423     0.413554    Uiso  ? Co
   Co19       1.0     0.166577     0.333154     0.413554    Uiso  ? Co
   Co20       1.0     0.166577     0.833423     0.413554    Uiso  ? Co
   Co21       1.0     0.000168     0.500084     0.919053    Uiso  ? Co
   Co22       1.0     0.499916    -0.000167     0.919053    Uiso  ? Co
   Co23       1.0     0.499916     0.500084     0.919053    Uiso  ? Co
   Co24       1.0     0.333166     0.166583     0.747614    Uiso  ? Co
   Co25       1.0     0.833417     0.666834     0.747614    Uiso  ? Co
   Co26       1.0     0.833417     0.166583     0.747614    Uiso  ? Co
   Fe1        1.0     0.666667     0.333333     0.833333    Uiso  ? Fe
