
#======================================================================
# CRYSTAL DATA
#----------------------------------------------------------------------
data_VESTA_phase_1

_chemical_name_common                  'Sm6 Co51                              '
_cell_length_a                         8.344588
_cell_length_b                         8.344588
_cell_length_c                         12.138269
_cell_angle_alpha                      89.999725
_cell_angle_beta                       90.000275
_cell_angle_gamma                      120.000206
_cell_volume                           731.975138
_space_group_name_H-M_alt              'P 1'
_space_group_IT_number                 1

loop_
_space_group_symop_operation_xyz
   'x, y, z'

loop_
   _atom_site_label
   _atom_site_occupancy
   _atom_site_fract_x
   _atom_site_fract_y
   _atom_site_fract_z
   _atom_site_adp_type
   _atom_site_U_iso_or_equiv
   _atom_site_type_symbol
   Sm1        1.0     0.333332     0.666668     0.011192    Uiso  ? Sm
   Sm2        1.0     0.666662     0.333338    -0.012231    Uiso  ? Sm
   Sm3        1.0     0.333333     0.666667     0.322178    Uiso  ? Sm
   Sm4        1.0     0.000005    -0.000005     0.344825    Uiso  ? Sm
   Sm5        1.0     0.000005    -0.000005     0.655706    Uiso  ? Sm
   Sm6        1.0     0.666662     0.333338     0.677222    Uiso  ? Sm
   Co1        1.0     0.000001    -0.000001     0.095664    Uiso  ? Co
   Co2        1.0     0.666664     0.333336     0.430435    Uiso  ? Co
   Co3        1.0     0.333333     0.666667     0.570685    Uiso  ? Co
   Co4        1.0     0.333334     0.666666     0.762553    Uiso  ? Co
   Co5        1.0     0.000003    -0.000003     0.904023    Uiso  ? Co
   Co6        1.0     0.834339     0.165661     0.166759    Uiso  ? Co
   Co7        1.0     0.331322     0.165660     0.166760    Uiso  ? Co
   Co8        1.0     0.834340     0.668678     0.166760    Uiso  ? Co
   Co9        1.0     0.500015     0.499985     0.500037    Uiso  ? Co
   Co10       1.0    -0.000025     0.499990     0.500037    Uiso  ? Co
   Co11       1.0     0.500010     0.000025     0.500037    Uiso  ? Co
   Co12       1.0     0.166449     0.332889     0.833272    Uiso  ? Co
   Co13       1.0     0.166443     0.833557     0.833273    Uiso  ? Co
   Co14       1.0     0.667111     0.833551     0.833272    Uiso  ? Co
   Co15       1.0     0.000163     0.713549    -0.000043    Uiso  ? Co
   Co16       1.0     0.000164     0.286615    -0.000043    Uiso  ? Co
   Co17       1.0     0.286451    -0.000163    -0.000043    Uiso  ? Co
   Co18       1.0     0.286449     0.286616    -0.000042    Uiso  ? Co
   Co19       1.0     0.713384     0.713551    -0.000042    Uiso  ? Co
   Co20       1.0     0.713385    -0.000164    -0.000043    Uiso  ? Co
   Co21       1.0     0.379418     0.333177     0.333676    Uiso  ? Co
   Co22       1.0     0.379412     0.046237     0.333676    Uiso  ? Co
   Co23       1.0     0.666820     0.046239     0.333673    Uiso  ? Co
   Co24       1.0     0.666823     0.620582     0.333676    Uiso  ? Co
   Co25       1.0     0.953761     0.333180     0.333673    Uiso  ? Co
   Co26       1.0     0.953763     0.620588     0.333676    Uiso  ? Co
   Co27       1.0     0.047198     0.666741     0.666687    Uiso  ? Co
   Co28       1.0     0.047199     0.380463     0.666687    Uiso  ? Co
   Co29       1.0     0.333259     0.952802     0.666687    Uiso  ? Co
   Co30       1.0     0.333263     0.380459     0.666687    Uiso  ? Co
   Co31       1.0     0.619541     0.666737     0.666687    Uiso  ? Co
   Co32       1.0     0.619537     0.952801     0.666687    Uiso  ? Co
   Co33       1.0     0.996171     0.498088     0.153676    Uiso  ? Co
   Co34       1.0     0.501912     0.003829     0.153676    Uiso  ? Co
   Co35       1.0     0.501917     0.498083     0.153675    Uiso  ? Co
   Co36       1.0     0.670956     0.835475     0.178975    Uiso  ? Co
   Co37       1.0     0.164525     0.329044     0.178975    Uiso  ? Co
   Co38       1.0     0.164522     0.835478     0.178976    Uiso  ? Co
   Co39       1.0     0.661942     0.830969     0.486984    Uiso  ? Co
   Co40       1.0     0.169031     0.338058     0.486984    Uiso  ? Co
   Co41       1.0     0.169029     0.830972     0.486983    Uiso  ? Co
   Co42       1.0     0.337502     0.168750     0.513061    Uiso  ? Co
   Co43       1.0     0.831250     0.662498     0.513061    Uiso  ? Co
   Co44       1.0     0.831249     0.168751     0.513056    Uiso  ? Co
   Co45       1.0     0.329043     0.164522     0.820553    Uiso  ? Co
   Co46       1.0     0.835478     0.670957     0.820553    Uiso  ? Co
   Co47       1.0     0.835479     0.164521     0.820554    Uiso  ? Co
   Co48       1.0     0.004796     0.502399     0.845975    Uiso  ? Co
   Co49       1.0     0.497601     0.995204     0.845975    Uiso  ? Co
   Co50       1.0     0.497605     0.502395     0.845975    Uiso  ? Co
   Fe1        1.0     0.666665     0.333335     0.237964    Uiso  ? Fe
