
#======================================================================
# CRYSTAL DATA
#----------------------------------------------------------------------
data_VESTA_phase_1

_chemical_name_common                  'Sm9 Co27'
_cell_length_a                         5.024443
_cell_length_b                         5.024443
_cell_length_c                         24.569155
_cell_angle_alpha                      90.000000
_cell_angle_beta                       90.000000
_cell_angle_gamma                      120.000000
_cell_volume                           537.151411
_space_group_name_H-M_alt              'P 1'
_space_group_IT_number                 1

loop_
_space_group_symop_operation_xyz
   'x, y, z'

loop_
   _atom_site_label
   _atom_site_occupancy
   _atom_site_fract_x
   _atom_site_fract_y
   _atom_site_fract_z
   _atom_site_adp_type
   _atom_site_U_iso_or_equiv
   _atom_site_type_symbol
   Sm1        1.0     0.000000     0.000000    -0.000060    Uiso  ? Sm
   Sm2        1.0     0.666667     0.333333     0.333247    Uiso  ? Sm
   Sm3        1.0     0.333333     0.666667     0.666894    Uiso  ? Sm
   Sm4        1.0     0.666667     0.333333     0.193515    Uiso  ? Sm
   Sm5        1.0     0.000000     0.000000     0.139765    Uiso  ? Sm
   Sm6        1.0     0.333333     0.666667     0.526638    Uiso  ? Sm
   Sm7        1.0     0.666667     0.333333     0.472927    Uiso  ? Sm
   Sm8        1.0     0.000000     0.000000     0.860163    Uiso  ? Sm
   Sm9        1.0     0.333333     0.666667     0.806766    Uiso  ? Sm
   Co1        1.0     0.333333     0.666667     0.166609    Uiso  ? Co
   Co2        1.0     0.000000     0.000000     0.501282    Uiso  ? Co
   Co3        1.0     0.666667     0.333333     0.831781    Uiso  ? Co
   Co4        1.0     0.333333     0.666667     0.332775    Uiso  ? Co
   Co5        1.0     0.333333     0.666667     0.000484    Uiso  ? Co
   Co6        1.0     0.000000     0.000000     0.665914    Uiso  ? Co
   Co7        1.0     0.000000     0.000000     0.333811    Uiso  ? Co
   Co8        1.0     0.666667     0.333333     0.999391    Uiso  ? Co
   Co9        1.0     0.666199     0.833100     0.253091    Uiso  ? Co
   Co10       1.0     0.166900     0.333801     0.253091    Uiso  ? Co
   Co11       1.0     0.166900     0.833100     0.253091    Uiso  ? Co
   Co12       1.0     0.000580     0.500290     0.080182    Uiso  ? Co
   Co13       1.0     0.499710    -0.000580     0.080182    Uiso  ? Co
   Co14       1.0     0.499710     0.500290     0.080182    Uiso  ? Co
   Co15       1.0     0.333635     0.166818     0.586334    Uiso  ? Co
   Co16       1.0     0.833182     0.666365     0.586334    Uiso  ? Co
   Co17       1.0     0.833182     0.166818     0.586334    Uiso  ? Co
   Co18       1.0     0.667718     0.833859     0.413541    Uiso  ? Co
   Co19       1.0     0.166141     0.332282     0.413541    Uiso  ? Co
   Co20       1.0     0.166141     0.833859     0.413541    Uiso  ? Co
   Co21       1.0    -0.001217     0.499391     0.919607    Uiso  ? Co
   Co22       1.0     0.500609     0.001217     0.919607    Uiso  ? Co
   Co23       1.0     0.500609     0.499391     0.919607    Uiso  ? Co
   Co24       1.0     0.330537     0.165269     0.747202    Uiso  ? Co
   Co25       1.0     0.834731     0.669463     0.747202    Uiso  ? Co
   Co26       1.0     0.834731     0.165269     0.747202    Uiso  ? Co
   Fe1        1.0     0.666667     0.333333     0.668224    Uiso  ? Fe
