
#======================================================================
# CRYSTAL DATA
#----------------------------------------------------------------------
data_VESTA_phase_1

_chemical_name_common                  'Sm6 Co51                              '
_cell_length_a                         8.344632
_cell_length_b                         8.344621
_cell_length_c                         12.149771
_cell_angle_alpha                      90.001282
_cell_angle_beta                       89.998703
_cell_angle_gamma                      120.046371
_cell_volume                           732.334325
_space_group_name_H-M_alt              'P 1'
_space_group_IT_number                 1

loop_
_space_group_symop_operation_xyz
   'x, y, z'

loop_
   _atom_site_label
   _atom_site_occupancy
   _atom_site_fract_x
   _atom_site_fract_y
   _atom_site_fract_z
   _atom_site_adp_type
   _atom_site_U_iso_or_equiv
   _atom_site_type_symbol
   Sm1        1.0     0.333136     0.666867     0.010857    Uiso  ? Sm
   Sm2        1.0     0.666672     0.333315    -0.011450    Uiso  ? Sm
   Sm3        1.0     0.333509     0.666492     0.322365    Uiso  ? Sm
   Sm4        1.0    -0.000018     0.000030     0.344638    Uiso  ? Sm
   Sm5        1.0     0.000055    -0.000040     0.655865    Uiso  ? Sm
   Sm6        1.0     0.666597     0.333387     0.677714    Uiso  ? Sm
   Co1        1.0     0.001190    -0.001186     0.095502    Uiso  ? Co
   Co2        1.0     0.665491     0.334506     0.237936    Uiso  ? Co
   Co3        1.0     0.666896     0.333098     0.429598    Uiso  ? Co
   Co4        1.0     0.333434     0.666565     0.570634    Uiso  ? Co
   Co5        1.0     0.333244     0.666758     0.762367    Uiso  ? Co
   Co6        1.0    -0.000183     0.000190     0.903933    Uiso  ? Co
   Co7        1.0     0.333359     0.166689     0.166632    Uiso  ? Co
   Co8        1.0     0.833311     0.666641     0.166632    Uiso  ? Co
   Co9        1.0     0.000368     0.500161     0.500058    Uiso  ? Co
   Co10       1.0     0.499839    -0.000367     0.500058    Uiso  ? Co
   Co11       1.0     0.500278     0.499721     0.500127    Uiso  ? Co
   Co12       1.0     0.166827     0.333701     0.833324    Uiso  ? Co
   Co13       1.0     0.166480     0.833513     0.833279    Uiso  ? Co
   Co14       1.0     0.666304     0.833178     0.833324    Uiso  ? Co
   Co15       1.0    -0.000054     0.713414    -0.000244    Uiso  ? Co
   Co16       1.0     0.000304     0.286235    -0.000780    Uiso  ? Co
   Co17       1.0     0.286584     0.000053    -0.000242    Uiso  ? Co
   Co18       1.0     0.286900     0.286765     0.000025    Uiso  ? Co
   Co19       1.0     0.713233     0.713101     0.000026    Uiso  ? Co
   Co20       1.0     0.713767    -0.000300    -0.000780    Uiso  ? Co
   Co21       1.0     0.380177     0.333258     0.333564    Uiso  ? Co
   Co22       1.0     0.379906     0.046767     0.333330    Uiso  ? Co
   Co23       1.0     0.666394     0.047190     0.334129    Uiso  ? Co
   Co24       1.0     0.666739     0.619820     0.333563    Uiso  ? Co
   Co25       1.0     0.952810     0.333605     0.334129    Uiso  ? Co
   Co26       1.0     0.953234     0.620093     0.333329    Uiso  ? Co
   Co27       1.0     0.047034     0.666861     0.666597    Uiso  ? Co
   Co28       1.0     0.047083     0.380378     0.666646    Uiso  ? Co
   Co29       1.0     0.333137     0.952962     0.666597    Uiso  ? Co
   Co30       1.0     0.333415     0.380342     0.666717    Uiso  ? Co
   Co31       1.0     0.619657     0.666580     0.666713    Uiso  ? Co
   Co32       1.0     0.619623     0.952919     0.666646    Uiso  ? Co
   Co33       1.0     0.996322     0.498716     0.154661    Uiso  ? Co
   Co34       1.0     0.501282     0.003678     0.154661    Uiso  ? Co
   Co35       1.0     0.501883     0.498114     0.154134    Uiso  ? Co
   Co36       1.0     0.670097     0.834524     0.178707    Uiso  ? Co
   Co37       1.0     0.165476     0.329903     0.178706    Uiso  ? Co
   Co38       1.0     0.164915     0.835087     0.179168    Uiso  ? Co
   Co39       1.0     0.662374     0.830961     0.487682    Uiso  ? Co
   Co40       1.0     0.169044     0.337633     0.487679    Uiso  ? Co
   Co41       1.0     0.168859     0.831144     0.487227    Uiso  ? Co
   Co42       1.0     0.337726     0.168726     0.513066    Uiso  ? Co
   Co43       1.0     0.831274     0.662275     0.513063    Uiso  ? Co
   Co44       1.0     0.831169     0.168832     0.513126    Uiso  ? Co
   Co45       1.0     0.328924     0.164585     0.820489    Uiso  ? Co
   Co46       1.0     0.835413     0.671074     0.820492    Uiso  ? Co
   Co47       1.0     0.835483     0.164518     0.820457    Uiso  ? Co
   Co48       1.0     0.004450     0.502435     0.845406    Uiso  ? Co
   Co49       1.0     0.497563     0.995549     0.845408    Uiso  ? Co
   Co50       1.0     0.497698     0.502301     0.845870    Uiso  ? Co
   Fe1        1.0     0.833315     0.166685     0.166641    Uiso  ? Fe
