
#======================================================================
# CRYSTAL DATA
#----------------------------------------------------------------------
data_VESTA_phase_1

_chemical_name_common                  'Sm6 Co51                              '
_cell_length_a                         8.297341
_cell_length_b                         8.297328
_cell_length_c                         12.107018
_cell_angle_alpha                      90.000557
_cell_angle_beta                       89.999382
_cell_angle_gamma                      119.999313
_cell_volume                           721.851765
_space_group_name_H-M_alt              'P 1'
_space_group_IT_number                 1

loop_
_space_group_symop_operation_xyz
   'x, y, z'

loop_
   _atom_site_label
   _atom_site_occupancy
   _atom_site_fract_x
   _atom_site_fract_y
   _atom_site_fract_z
   _atom_site_adp_type
   _atom_site_U_iso_or_equiv
   _atom_site_type_symbol
   Sm1        1.0     0.333340     0.666667     0.011790    Uiso  ? Sm
   Sm2        1.0     0.666622     0.333329    -0.009988    Uiso  ? Sm
   Sm3        1.0     0.000013    -0.000009     0.344977    Uiso  ? Sm
   Sm4        1.0     0.000034    -0.000005     0.655376    Uiso  ? Sm
   Sm5        1.0     0.666611     0.333328     0.677851    Uiso  ? Sm
   Co1        1.0     0.000005     0.000001     0.098603    Uiso  ? Co
   Co2        1.0     0.666662     0.333333     0.238217    Uiso  ? Co
   Co3        1.0     0.666650     0.333327     0.428620    Uiso  ? Co
   Co4        1.0     0.333330     0.666664     0.564371    Uiso  ? Co
   Co5        1.0     0.333331     0.666662     0.759365    Uiso  ? Co
   Co6        1.0     0.000038     0.000007     0.905640    Uiso  ? Co
   Co7        1.0     0.834203     0.165803     0.168415    Uiso  ? Co
   Co8        1.0     0.331598     0.165798     0.168421    Uiso  ? Co
   Co9        1.0     0.834202     0.668398     0.168414    Uiso  ? Co
   Co10       1.0     0.500525     0.499451     0.500225    Uiso  ? Co
   Co11       1.0    -0.001063     0.499473     0.500224    Uiso  ? Co
   Co12       1.0     0.500511     0.001056     0.500225    Uiso  ? Co
   Co13       1.0     0.166705     0.333360     0.833912    Uiso  ? Co
   Co14       1.0     0.166690     0.833364     0.833912    Uiso  ? Co
   Co15       1.0     0.666615     0.833300     0.833901    Uiso  ? Co
   Co16       1.0     0.000465     0.713504     0.001721    Uiso  ? Co
   Co17       1.0     0.000476     0.286974     0.001729    Uiso  ? Co
   Co18       1.0     0.286509    -0.000455     0.001725    Uiso  ? Co
   Co19       1.0     0.286519     0.286968     0.001722    Uiso  ? Co
   Co20       1.0     0.713025     0.713493     0.001717    Uiso  ? Co
   Co21       1.0     0.713021    -0.000468     0.001724    Uiso  ? Co
   Co22       1.0     0.376717     0.338253     0.333529    Uiso  ? Co
   Co23       1.0     0.376723     0.038474     0.333532    Uiso  ? Co
   Co24       1.0     0.661733     0.038481     0.333525    Uiso  ? Co
   Co25       1.0     0.661728     0.623246     0.333527    Uiso  ? Co
   Co26       1.0     0.961544     0.338265     0.333525    Uiso  ? Co
   Co27       1.0     0.961531     0.623265     0.333529    Uiso  ? Co
   Co28       1.0     0.046532     0.667298     0.666339    Uiso  ? Co
   Co29       1.0     0.046549     0.379241     0.666334    Uiso  ? Co
   Co30       1.0     0.332699     0.953499     0.666336    Uiso  ? Co
   Co31       1.0     0.332711     0.379211     0.666333    Uiso  ? Co
   Co32       1.0     0.620775     0.667280     0.666336    Uiso  ? Co
   Co33       1.0     0.620749     0.953456     0.666336    Uiso  ? Co
   Co34       1.0    -0.000722     0.499639     0.156487    Uiso  ? Co
   Co35       1.0     0.500353     0.000722     0.156496    Uiso  ? Co
   Co36       1.0     0.500364     0.499637     0.156491    Uiso  ? Co
   Co37       1.0     0.658712     0.829350     0.184620    Uiso  ? Co
   Co38       1.0     0.170657     0.341295     0.184625    Uiso  ? Co
   Co39       1.0     0.170643     0.829357     0.184622    Uiso  ? Co
   Co40       1.0     0.655259     0.827622     0.482267    Uiso  ? Co
   Co41       1.0     0.172360     0.344710     0.482283    Uiso  ? Co
   Co42       1.0     0.172358     0.827638     0.482275    Uiso  ? Co
   Co43       1.0     0.337054     0.168528     0.512487    Uiso  ? Co
   Co44       1.0     0.831460     0.662931     0.512495    Uiso  ? Co
   Co45       1.0     0.831460     0.168519     0.512492    Uiso  ? Co
   Co46       1.0     0.329049     0.164525     0.821288    Uiso  ? Co
   Co47       1.0     0.835469     0.670945     0.821293    Uiso  ? Co
   Co48       1.0     0.835475     0.164519     0.821293    Uiso  ? Co
   Co49       1.0     0.004679     0.502343     0.845983    Uiso  ? Co
   Co50       1.0     0.497648     0.995319     0.845985    Uiso  ? Co
   Co51       1.0     0.497657     0.502328     0.845986    Uiso  ? Co
   Fe1        1.0     0.333435     0.666776     0.298544    Uiso  ? Fe
