
#======================================================================
# CRYSTAL DATA
#----------------------------------------------------------------------
data_VESTA_phase_1

_chemical_name_common                  'Sm6 Co51                              '
_cell_length_a                         8.369775
_cell_length_b                         8.369775
_cell_length_c                         12.048388
_cell_angle_alpha                      90.031143
_cell_angle_beta                       89.968857
_cell_angle_gamma                      119.939720
_cell_volume                           731.392496
_space_group_name_H-M_alt              'P 1'
_space_group_IT_number                 1

loop_
_space_group_symop_operation_xyz
   'x, y, z'

loop_
   _atom_site_label
   _atom_site_occupancy
   _atom_site_fract_x
   _atom_site_fract_y
   _atom_site_fract_z
   _atom_site_adp_type
   _atom_site_U_iso_or_equiv
   _atom_site_type_symbol
   Sm1        1.0     0.333467     0.666533     0.013803    Uiso  ? Sm
   Sm2        1.0     0.666319     0.333681    -0.010079    Uiso  ? Sm
   Sm3        1.0     0.332207     0.667793     0.322538    Uiso  ? Sm
   Sm4        1.0     0.001068    -0.001068     0.346376    Uiso  ? Sm
   Sm5        1.0    -0.000098     0.000098     0.656917    Uiso  ? Sm
   Sm6        1.0     0.666652     0.333348     0.680374    Uiso  ? Sm
   Co1        1.0    -0.001090     0.001090     0.096570    Uiso  ? Co
   Co2        1.0     0.666582     0.333418     0.238016    Uiso  ? Co
   Co3        1.0     0.666720     0.333280     0.430775    Uiso  ? Co
   Co4        1.0     0.333303     0.666697     0.570590    Uiso  ? Co
   Co5        1.0     0.333372     0.666628     0.763352    Uiso  ? Co
   Co6        1.0     0.000331    -0.000331     0.904393    Uiso  ? Co
   Co7        1.0     0.833604     0.166396     0.165292    Uiso  ? Co
   Co8        1.0     0.331598     0.165804     0.165908    Uiso  ? Co
   Co9        1.0     0.834196     0.668402     0.165908    Uiso  ? Co
   Co10       1.0     0.500317     0.499683     0.498612    Uiso  ? Co
   Co11       1.0    -0.001552     0.498799     0.499008    Uiso  ? Co
   Co12       1.0     0.501201     0.001552     0.499008    Uiso  ? Co
   Co13       1.0     0.167564     0.334700     0.832172    Uiso  ? Co
   Co14       1.0     0.167274     0.832726     0.832156    Uiso  ? Co
   Co15       1.0     0.665300     0.832437     0.832172    Uiso  ? Co
   Co16       1.0     0.000478     0.715525    -0.000742    Uiso  ? Co
   Co17       1.0     0.000263     0.285018    -0.001194    Uiso  ? Co
   Co18       1.0     0.284475    -0.000478    -0.000742    Uiso  ? Co
   Co19       1.0     0.283475     0.284266    -0.000747    Uiso  ? Co
   Co20       1.0     0.715734     0.716525    -0.000747    Uiso  ? Co
   Co21       1.0     0.714982    -0.000263    -0.001194    Uiso  ? Co
   Co22       1.0     0.381244     0.333571     0.332259    Uiso  ? Co
   Co23       1.0     0.384925     0.052757     0.333435    Uiso  ? Co
   Co24       1.0     0.667914     0.048708     0.332336    Uiso  ? Co
   Co25       1.0     0.666429     0.618756     0.332259    Uiso  ? Co
   Co26       1.0     0.951292     0.332086     0.332336    Uiso  ? Co
   Co27       1.0     0.947243     0.615075     0.333435    Uiso  ? Co
   Co28       1.0     0.048301     0.666160     0.665702    Uiso  ? Co
   Co29       1.0     0.048383     0.382356     0.665910    Uiso  ? Co
   Co30       1.0     0.333840     0.951699     0.665702    Uiso  ? Co
   Co31       1.0     0.333944     0.382475     0.665683    Uiso  ? Co
   Co32       1.0     0.617525     0.666056     0.665683    Uiso  ? Co
   Co33       1.0     0.617644     0.951617     0.665910    Uiso  ? Co
   Co34       1.0     0.677780     0.838918     0.183091    Uiso  ? Co
   Co35       1.0     0.161082     0.322221     0.183091    Uiso  ? Co
   Co36       1.0     0.343542     0.171885     0.516999    Uiso  ? Co
   Co37       1.0     0.828115     0.656458     0.516999    Uiso  ? Co
   Co38       1.0     0.828374     0.171626     0.516685    Uiso  ? Co
   Co39       1.0     0.010437     0.505210     0.849792    Uiso  ? Co
   Co40       1.0     0.494790     0.989563     0.849792    Uiso  ? Co
   Co41       1.0     0.494725     0.505275     0.850000    Uiso  ? Co
   Ni1        1.0     0.501974     0.498026     0.151150    Uiso  ? Ni
   Ni2        1.0     0.168223     0.831777     0.484561    Uiso  ? Ni
   Ni3        1.0     0.834679     0.165321     0.817959    Uiso  ? Ni
   Ni4        1.0     0.502401     0.004078     0.151124    Uiso  ? Ni
   Ni5        1.0     0.167975     0.335886     0.484653    Uiso  ? Ni
   Ni6        1.0     0.834686     0.669234     0.818142    Uiso  ? Ni
   Ni7        1.0     0.995922     0.497599     0.151124    Uiso  ? Ni
   Ni8        1.0     0.664114     0.832025     0.484653    Uiso  ? Ni
   Ni9        1.0     0.330766     0.165314     0.818142    Uiso  ? Ni
   Ni10       1.0     0.163989     0.836011     0.182900    Uiso  ? Ni
