
#======================================================================
# CRYSTAL DATA
#----------------------------------------------------------------------
data_VESTA_phase_1

_chemical_name_common                  'Sm6 Co51                              '
_cell_length_a                         8.368259
_cell_length_b                         8.368259
_cell_length_c                         12.044238
_cell_angle_alpha                      90.052528
_cell_angle_beta                       89.947472
_cell_angle_gamma                      119.874229
_cell_volume                           731.356288
_space_group_name_H-M_alt              'P 1'
_space_group_IT_number                 1

loop_
_space_group_symop_operation_xyz
   'x, y, z'

loop_
   _atom_site_label
   _atom_site_occupancy
   _atom_site_fract_x
   _atom_site_fract_y
   _atom_site_fract_z
   _atom_site_adp_type
   _atom_site_U_iso_or_equiv
   _atom_site_type_symbol
   Sm1        1.0     0.333496     0.666504     0.013777    Uiso  ? Sm
   Sm2        1.0     0.666178     0.333822    -0.010086    Uiso  ? Sm
   Sm3        1.0     0.331827     0.668172     0.322372    Uiso  ? Sm
   Sm4        1.0     0.001224    -0.001224     0.346648    Uiso  ? Sm
   Sm5        1.0    -0.001246     0.001246     0.656083    Uiso  ? Sm
   Sm6        1.0     0.667756     0.332244     0.679842    Uiso  ? Sm
   Co1        1.0    -0.001067     0.001067     0.096562    Uiso  ? Co
   Co2        1.0     0.666864     0.333136     0.237808    Uiso  ? Co
   Co3        1.0     0.665701     0.334299     0.430192    Uiso  ? Co
   Co4        1.0     0.333185     0.666815     0.570822    Uiso  ? Co
   Co5        1.0     0.333404     0.666596     0.763878    Uiso  ? Co
   Co6        1.0     0.000368    -0.000368     0.904093    Uiso  ? Co
   Co7        1.0     0.833490     0.166510     0.165315    Uiso  ? Co
   Co8        1.0     0.331666     0.165728     0.166017    Uiso  ? Co
   Co9        1.0     0.834272     0.668334     0.166017    Uiso  ? Co
   Co10       1.0     0.499936     0.500064     0.498485    Uiso  ? Co
   Co11       1.0    -0.001876     0.498839     0.499387    Uiso  ? Co
   Co12       1.0     0.501161     0.001876     0.499387    Uiso  ? Co
   Co13       1.0     0.168006     0.334777     0.832387    Uiso  ? Co
   Co14       1.0     0.166991     0.833009     0.832073    Uiso  ? Co
   Co15       1.0     0.665223     0.831994     0.832387    Uiso  ? Co
   Co16       1.0     0.000432     0.715770    -0.000764    Uiso  ? Co
   Co17       1.0     0.000057     0.285050    -0.001231    Uiso  ? Co
   Co18       1.0     0.284230    -0.000432    -0.000764    Uiso  ? Co
   Co19       1.0     0.283217     0.283975    -0.000527    Uiso  ? Co
   Co20       1.0     0.716025     0.716783    -0.000527    Uiso  ? Co
   Co21       1.0     0.714950    -0.000057    -0.001231    Uiso  ? Co
   Co22       1.0     0.381178     0.333950     0.331995    Uiso  ? Co
   Co23       1.0     0.385638     0.053527     0.333634    Uiso  ? Co
   Co24       1.0     0.667668     0.048371     0.332439    Uiso  ? Co
   Co25       1.0     0.666050     0.618822     0.331995    Uiso  ? Co
   Co26       1.0     0.951629     0.332332     0.332439    Uiso  ? Co
   Co27       1.0     0.946473     0.614362     0.333634    Uiso  ? Co
   Co28       1.0     0.047871     0.667111     0.665573    Uiso  ? Co
   Co29       1.0     0.051781     0.386200     0.666840    Uiso  ? Co
   Co30       1.0     0.332889     0.952129     0.665573    Uiso  ? Co
   Co31       1.0     0.334512     0.382206     0.665644    Uiso  ? Co
   Co32       1.0     0.617794     0.665488     0.665644    Uiso  ? Co
   Co33       1.0     0.613800     0.948219     0.666840    Uiso  ? Co
   Co34       1.0     0.677759     0.838886     0.183093    Uiso  ? Co
   Co35       1.0     0.161114     0.322241     0.183093    Uiso  ? Co
   Co36       1.0     0.344217     0.172271     0.516994    Uiso  ? Co
   Co37       1.0     0.827729     0.655783     0.516994    Uiso  ? Co
   Co38       1.0     0.010397     0.505246     0.850275    Uiso  ? Co
   Co39       1.0     0.494754     0.989603     0.850275    Uiso  ? Co
   Co40       1.0     0.494923     0.505077     0.850098    Uiso  ? Co
   Ni1        1.0     0.501950     0.498050     0.150984    Uiso  ? Ni
   Ni2        1.0     0.168868     0.831132     0.484240    Uiso  ? Ni
   Ni3        1.0     0.834918     0.165082     0.817623    Uiso  ? Ni
   Ni4        1.0     0.502442     0.003875     0.151072    Uiso  ? Ni
   Ni5        1.0     0.169136     0.337444     0.484224    Uiso  ? Ni
   Ni6        1.0     0.834706     0.669107     0.817950    Uiso  ? Ni
   Ni7        1.0     0.996125     0.497558     0.151072    Uiso  ? Ni
   Ni8        1.0     0.662556     0.830864     0.484224    Uiso  ? Ni
   Ni9        1.0     0.330893     0.165294     0.817950    Uiso  ? Ni
   Ni10       1.0     0.163901     0.836099     0.182967    Uiso  ? Ni
   Ni11       1.0     0.830859     0.169141     0.516221    Uiso  ? Ni
