
#======================================================================
# CRYSTAL DATA
#----------------------------------------------------------------------
data_VESTA_phase_1

_chemical_name_common                  'Sm6 Co51'
_cell_length_a                         8.368084
_cell_length_b                         8.368084
_cell_length_c                         12.206181
_cell_angle_alpha                      90.000000
_cell_angle_beta                       90.000000
_cell_angle_gamma                      120.000000
_cell_volume                           740.222837
_space_group_name_H-M_alt              'P 1'
_space_group_IT_number                 1

loop_
_space_group_symop_operation_xyz
   'x, y, z'

loop_
   _atom_site_label
   _atom_site_occupancy
   _atom_site_fract_x
   _atom_site_fract_y
   _atom_site_fract_z
   _atom_site_adp_type
   _atom_site_U_iso_or_equiv
   _atom_site_type_symbol
   Sm1        1.0     0.333333     0.666667     0.000000    Uiso  ? Sm
   Sm2        1.0     0.666667     0.333333     0.000000    Uiso  ? Sm
   Sm3        1.0     0.333333     0.666667     0.322659    Uiso  ? Sm
   Sm4        1.0     0.000000     0.000000     0.344008    Uiso  ? Sm
   Sm5        1.0     0.000000     0.000000     0.655992    Uiso  ? Sm
   Sm6        1.0     0.666667     0.333333     0.677341    Uiso  ? Sm
   Co1        1.0     0.000000     0.000000     0.096082    Uiso  ? Co
   Co2        1.0     0.666667     0.333333     0.237251    Uiso  ? Co
   Co3        1.0     0.666667     0.333333     0.429415    Uiso  ? Co
   Co4        1.0     0.333333     0.666667     0.570585    Uiso  ? Co
   Co5        1.0     0.333333     0.666667     0.762749    Uiso  ? Co
   Co6        1.0     0.000000     0.000000     0.903918    Uiso  ? Co
   Co7        1.0     0.833333     0.166667     0.166667    Uiso  ? Co
   Co8        1.0     0.333333     0.166667     0.166667    Uiso  ? Co
   Co9        1.0     0.833333     0.666667     0.166667    Uiso  ? Co
   Co10       1.0     0.500000     0.500000     0.500000    Uiso  ? Co
   Co11       1.0     0.000000     0.500000     0.500000    Uiso  ? Co
   Co12       1.0     0.500000     0.000000     0.500000    Uiso  ? Co
   Co13       1.0     0.166667     0.333333     0.833333    Uiso  ? Co
   Co14       1.0     0.166667     0.833333     0.833333    Uiso  ? Co
   Co15       1.0     0.666667     0.833333     0.833333    Uiso  ? Co
   Co16       1.0     0.000000     0.713746     0.000000    Uiso  ? Co
   Co17       1.0     0.000000     0.286254     0.000000    Uiso  ? Co
   Co18       1.0     0.286254     0.000000     0.000000    Uiso  ? Co
   Co19       1.0     0.286254     0.286254     0.000000    Uiso  ? Co
   Co20       1.0     0.713746     0.713746     0.000000    Uiso  ? Co
   Co21       1.0     0.713746     0.000000     0.000000    Uiso  ? Co
   Co22       1.0     0.380413     0.333333     0.333333    Uiso  ? Co
   Co23       1.0     0.380413     0.047079     0.333333    Uiso  ? Co
   Co24       1.0     0.666667     0.047079     0.333333    Uiso  ? Co
   Co25       1.0     0.666667     0.619587     0.333333    Uiso  ? Co
   Co26       1.0     0.952921     0.333333     0.333333    Uiso  ? Co
   Co27       1.0     0.952921     0.619587     0.333333    Uiso  ? Co
   Co28       1.0     0.047079     0.666667     0.666667    Uiso  ? Co
   Co29       1.0     0.047079     0.380413     0.666667    Uiso  ? Co
   Co30       1.0     0.333333     0.952921     0.666667    Uiso  ? Co
   Co31       1.0     0.333333     0.380413     0.666667    Uiso  ? Co
   Co32       1.0     0.619587     0.666667     0.666667    Uiso  ? Co
   Co33       1.0     0.619587     0.952921     0.666667    Uiso  ? Co
   Co34       1.0     0.670939     0.835469     0.179440    Uiso  ? Co
   Co35       1.0     0.164531     0.329061     0.179440    Uiso  ? Co
   Co36       1.0     0.337605     0.168803     0.512774    Uiso  ? Co
   Co37       1.0     0.831197     0.662395     0.512774    Uiso  ? Co
   Co38       1.0     0.004272     0.502136     0.846107    Uiso  ? Co
   Co39       1.0     0.497864     0.995728     0.846107    Uiso  ? Co
   Ni1        1.0     0.502136     0.497864     0.153893    Uiso  ? Ni
   Ni2        1.0     0.168803     0.831197     0.487226    Uiso  ? Ni
   Ni3        1.0     0.835469     0.164531     0.820560    Uiso  ? Ni
   Ni4        1.0     0.502136     0.004272     0.153893    Uiso  ? Ni
   Ni5        1.0     0.168803     0.337605     0.487226    Uiso  ? Ni
   Ni6        1.0     0.835469     0.670939     0.820560    Uiso  ? Ni
   Ni7        1.0     0.995728     0.497864     0.153893    Uiso  ? Ni
   Ni8        1.0     0.662395     0.831197     0.487226    Uiso  ? Ni
   Ni9        1.0     0.329061     0.164531     0.820560    Uiso  ? Ni
   Ni10       1.0     0.164531     0.835469     0.179440    Uiso  ? Ni
   Ni11       1.0     0.831197     0.168803     0.512774    Uiso  ? Ni
   Ni12       1.0     0.497864     0.502136     0.846107    Uiso  ? Ni
