
#======================================================================
# CRYSTAL DATA
#----------------------------------------------------------------------
data_VESTA_phase_1

_chemical_name_common                  'Sm6 Co51                              '
_cell_length_a                         8.375529
_cell_length_b                         8.369044
_cell_length_c                         12.036362
_cell_angle_alpha                      90.038864
_cell_angle_beta                       89.946770
_cell_angle_gamma                      119.845749
_cell_volume                           731.790442
_space_group_name_H-M_alt              'P 1'
_space_group_IT_number                 1

loop_
_space_group_symop_operation_xyz
   'x, y, z'

loop_
   _atom_site_label
   _atom_site_occupancy
   _atom_site_fract_x
   _atom_site_fract_y
   _atom_site_fract_z
   _atom_site_adp_type
   _atom_site_U_iso_or_equiv
   _atom_site_type_symbol
   Sm1        1.0     0.334848     0.665533     0.013730    Uiso  ? Sm
   Sm2        1.0     0.664570     0.334223     0.988732    Uiso  ? Sm
   Sm3        1.0     0.330562     0.665974     0.322036    Uiso  ? Sm
   Sm4        1.0     0.002536     0.001290     0.345920    Uiso  ? Sm
   Sm5        1.0     0.998339     0.001606     0.655629    Uiso  ? Sm
   Sm6        1.0     0.667837     0.331941     0.679981    Uiso  ? Sm
   Co1        1.0     0.998480     0.999532     0.096508    Uiso  ? Co
   Co2        1.0     0.666898     0.332837     0.237422    Uiso  ? Co
   Co3        1.0     0.665058     0.334032     0.430322    Uiso  ? Co
   Co4        1.0     0.333553     0.666356     0.570526    Uiso  ? Co
   Co5        1.0     0.332512     0.667606     0.763531    Uiso  ? Co
   Co6        1.0     0.000588     0.000258     0.903977    Uiso  ? Co
   Co7        1.0     0.833201     0.166652     0.165656    Uiso  ? Co
   Co8        1.0     0.331873     0.165650     0.166410    Uiso  ? Co
   Co9        1.0     0.833980     0.667463     0.166019    Uiso  ? Co
   Co10       1.0     0.500301     0.500413     0.498948    Uiso  ? Co
   Co11       1.0     0.998158     0.499026     0.499758    Uiso  ? Co
   Co12       1.0     0.500893     0.001077     0.499428    Uiso  ? Co
   Co13       1.0     0.167930     0.334845     0.832960    Uiso  ? Co
   Co14       1.0     0.166842     0.833402     0.832210    Uiso  ? Co
   Co15       1.0     0.665024     0.832202     0.833088    Uiso  ? Co
   Co16       1.0     0.000633     0.714614     0.998997    Uiso  ? Co
   Co17       1.0     0.999049     0.286049     0.998852    Uiso  ? Co
   Co18       1.0     0.283783     0.998500     0.999381    Uiso  ? Co
   Co19       1.0     0.279279     0.280049     0.000308    Uiso  ? Co
   Co20       1.0     0.719539     0.720161     0.000047    Uiso  ? Co
   Co21       1.0     0.715264     0.000736     0.998807    Uiso  ? Co
   Co22       1.0     0.384815     0.333887     0.333001    Uiso  ? Co
   Co23       1.0     0.385358     0.052216     0.333560    Uiso  ? Co
   Co24       1.0     0.666890     0.046826     0.332410    Uiso  ? Co
   Co25       1.0     0.666481     0.620126     0.331930    Uiso  ? Co
   Co26       1.0     0.946933     0.332184     0.333502    Uiso  ? Co
   Co27       1.0     0.946542     0.615240     0.333823    Uiso  ? Co
   Co28       1.0     0.047832     0.667597     0.665493    Uiso  ? Co
   Co29       1.0     0.052750     0.387117     0.667013    Uiso  ? Co
   Co30       1.0     0.332343     0.951705     0.665333    Uiso  ? Co
   Co31       1.0     0.334135     0.381849     0.665823    Uiso  ? Co
   Co32       1.0     0.618053     0.665755     0.666100    Uiso  ? Co
   Co33       1.0     0.612659     0.947090     0.667079    Uiso  ? Co
   Co34       1.0     0.678378     0.839411     0.183383    Uiso  ? Co
   Co35       1.0     0.344269     0.172096     0.517133    Uiso  ? Co
   Co36       1.0     0.827728     0.655888     0.516890    Uiso  ? Co
   Co37       1.0     0.011093     0.505626     0.850063    Uiso  ? Co
   Co38       1.0     0.494242     0.988632     0.850248    Uiso  ? Co
   Ni1        1.0     0.503062     0.497561     0.150390    Uiso  ? Ni
   Ni2        1.0     0.168685     0.831273     0.483804    Uiso  ? Ni
   Ni3        1.0     0.835500     0.164613     0.817284    Uiso  ? Ni
   Ni4        1.0     0.503013     0.005167     0.150606    Uiso  ? Ni
   Ni5        1.0     0.169318     0.337618     0.483694    Uiso  ? Ni
   Ni6        1.0     0.835947     0.670760     0.817289    Uiso  ? Ni
   Ni7        1.0     0.995011     0.497444     0.150616    Uiso  ? Ni
   Ni8        1.0     0.662977     0.830971     0.484097    Uiso  ? Ni
   Ni9        1.0     0.329441     0.164112     0.817489    Uiso  ? Ni
   Ni10       1.0     0.163687     0.836043     0.183140    Uiso  ? Ni
   Ni11       1.0     0.830574     0.169054     0.516622    Uiso  ? Ni
   Ni12       1.0     0.497423     0.502572     0.849609    Uiso  ? Ni
   Ni13       1.0     0.163332     0.327535     0.183391    Uiso  ? Ni
