
#======================================================================
# CRYSTAL DATA
#----------------------------------------------------------------------
data_VESTA_phase_1

_chemical_name_common                  'Sm6 Co51                              '
_cell_length_a                         8.382309
_cell_length_b                         8.369933
_cell_length_c                         12.033799
_cell_angle_alpha                      90.016113
_cell_angle_beta                       89.958092
_cell_angle_gamma                      119.887199
_cell_volume                           732.000616
_space_group_name_H-M_alt              'P 1'
_space_group_IT_number                 1

loop_
_space_group_symop_operation_xyz
   'x, y, z'

loop_
   _atom_site_label
   _atom_site_occupancy
   _atom_site_fract_x
   _atom_site_fract_y
   _atom_site_fract_z
   _atom_site_adp_type
   _atom_site_U_iso_or_equiv
   _atom_site_type_symbol
   Sm1        1.0     0.334805     0.665516     0.013657    Uiso  ? Sm
   Sm2        1.0     0.664583     0.334129    -0.011382    Uiso  ? Sm
   Sm3        1.0     0.330106     0.665149     0.321739    Uiso  ? Sm
   Sm4        1.0     0.002746     0.001394     0.346285    Uiso  ? Sm
   Sm5        1.0    -0.002766    -0.000835     0.655191    Uiso  ? Sm
   Sm6        1.0     0.669154     0.334582     0.679196    Uiso  ? Sm
   Co1        1.0    -0.001442    -0.000512     0.096527    Uiso  ? Co
   Co2        1.0     0.667116     0.333456     0.237196    Uiso  ? Co
   Co3        1.0     0.664647     0.332510     0.429941    Uiso  ? Co
   Co4        1.0     0.333558     0.666379     0.570519    Uiso  ? Co
   Co5        1.0     0.331912     0.667185     0.763728    Uiso  ? Co
   Co6        1.0     0.000422     0.000188     0.903691    Uiso  ? Co
   Co7        1.0     0.833284     0.166670     0.165905    Uiso  ? Co
   Co8        1.0     0.331987     0.165792     0.166712    Uiso  ? Co
   Co9        1.0     0.833995     0.667326     0.166144    Uiso  ? Co
   Co10       1.0     0.500168     0.500148     0.499220    Uiso  ? Co
   Co11       1.0    -0.001672     0.499105     0.499945    Uiso  ? Co
   Co12       1.0     0.500176     0.000060     0.499189    Uiso  ? Co
   Co13       1.0     0.167527     0.334200     0.832993    Uiso  ? Co
   Co14       1.0     0.167351     0.833852     0.832449    Uiso  ? Co
   Co15       1.0     0.665075     0.832542     0.833271    Uiso  ? Co
   Co16       1.0     0.000473     0.714543    -0.001076    Uiso  ? Co
   Co17       1.0    -0.001032     0.285520    -0.001046    Uiso  ? Co
   Co18       1.0     0.283784    -0.001296    -0.000388    Uiso  ? Co
   Co19       1.0     0.279136     0.279816     0.000414    Uiso  ? Co
   Co20       1.0     0.719615     0.720083     0.000088    Uiso  ? Co
   Co21       1.0     0.715294     0.000726    -0.000998    Uiso  ? Co
   Co22       1.0     0.385431     0.333747     0.333203    Uiso  ? Co
   Co23       1.0     0.385412     0.051780     0.333268    Uiso  ? Co
   Co24       1.0     0.666471     0.046262     0.332167    Uiso  ? Co
   Co25       1.0     0.666329     0.620583     0.332104    Uiso  ? Co
   Co26       1.0     0.946221     0.331732     0.333650    Uiso  ? Co
   Co27       1.0     0.946437     0.614667     0.333705    Uiso  ? Co
   Co28       1.0     0.051642     0.667294     0.666426    Uiso  ? Co
   Co29       1.0     0.052127     0.385433     0.666934    Uiso  ? Co
   Co30       1.0     0.333102     0.953089     0.665251    Uiso  ? Co
   Co31       1.0     0.333384     0.380135     0.665792    Uiso  ? Co
   Co32       1.0     0.613634     0.665649     0.666838    Uiso  ? Co
   Co33       1.0     0.613035     0.948262     0.667105    Uiso  ? Co
   Co34       1.0     0.678320     0.839328     0.183343    Uiso  ? Co
   Co35       1.0     0.345019     0.172529     0.517111    Uiso  ? Co
   Co36       1.0     0.011010     0.505421     0.850429    Uiso  ? Co
   Co37       1.0     0.494395     0.988955     0.850156    Uiso  ? Co
   Ni1        1.0     0.503077     0.497758     0.150399    Uiso  ? Ni
   Ni2        1.0     0.169593     0.830873     0.483462    Uiso  ? Ni
   Ni3        1.0     0.835475     0.164652     0.817083    Uiso  ? Ni
   Ni4        1.0     0.502955     0.005087     0.150473    Uiso  ? Ni
   Ni5        1.0     0.169729     0.338708     0.483660    Uiso  ? Ni
   Ni6        1.0     0.836092     0.671052     0.816801    Uiso  ? Ni
   Ni7        1.0     0.995284     0.497622     0.150550    Uiso  ? Ni
   Ni8        1.0     0.661620     0.830740     0.483687    Uiso  ? Ni
   Ni9        1.0     0.329661     0.164367     0.817392    Uiso  ? Ni
   Ni10       1.0     0.163668     0.836109     0.183103    Uiso  ? Ni
   Ni11       1.0     0.830063     0.169082     0.516770    Uiso  ? Ni
   Ni12       1.0     0.497357     0.502378     0.849891    Uiso  ? Ni
   Ni13       1.0     0.163270     0.327253     0.183441    Uiso  ? Ni
   Ni14       1.0     0.830180     0.661226     0.516696    Uiso  ? Ni
