
#======================================================================
# CRYSTAL DATA
#----------------------------------------------------------------------
data_VESTA_phase_1

_chemical_name_common                  'Sm6 Co51                              '
_cell_length_a                         8.388362
_cell_length_b                         8.370088
_cell_length_c                         12.029871
_cell_angle_alpha                      90.000000
_cell_angle_beta                       89.975739
_cell_angle_gamma                      119.927956
_cell_volume                           732.004146
_space_group_name_H-M_alt              'P 1'
_space_group_IT_number                 1

loop_
_space_group_symop_operation_xyz
   'x, y, z'

loop_
   _atom_site_label
   _atom_site_occupancy
   _atom_site_fract_x
   _atom_site_fract_y
   _atom_site_fract_z
   _atom_site_adp_type
   _atom_site_U_iso_or_equiv
   _atom_site_type_symbol
   Sm1        1.0     0.336194     0.668097     0.012986    Uiso  ? Sm
   Sm2        1.0     0.663397     0.331698    -0.011903    Uiso  ? Sm
   Sm3        1.0     0.330044     0.665022     0.321598    Uiso  ? Sm
   Sm4        1.0     0.002842     0.001421     0.346240    Uiso  ? Sm
   Sm5        1.0    -0.003324    -0.001662     0.654899    Uiso  ? Sm
   Sm6        1.0     0.669547     0.334773     0.679474    Uiso  ? Sm
   Co1        1.0    -0.002036    -0.001018     0.096654    Uiso  ? Co
   Co2        1.0     0.667081     0.333540     0.236865    Uiso  ? Co
   Co3        1.0     0.664704     0.332351     0.429872    Uiso  ? Co
   Co4        1.0     0.333586     0.666793     0.570348    Uiso  ? Co
   Co5        1.0     0.331138     0.665569     0.763428    Uiso  ? Co
   Co6        1.0     0.000303     0.000151     0.903653    Uiso  ? Co
   Co7        1.0     0.833678     0.166974     0.166111    Uiso  ? Co
   Co8        1.0     0.331960     0.165980     0.166881    Uiso  ? Co
   Co9        1.0     0.833678     0.666704     0.166111    Uiso  ? Co
   Co10       1.0     0.500239     0.500261     0.499371    Uiso  ? Co
   Co11       1.0    -0.001508     0.499246     0.500156    Uiso  ? Co
   Co12       1.0     0.500239    -0.000022     0.499371    Uiso  ? Co
   Co13       1.0     0.166974     0.333309     0.832802    Uiso  ? Co
   Co14       1.0     0.166974     0.833664     0.832802    Uiso  ? Co
   Co15       1.0     0.665387     0.832693     0.833445    Uiso  ? Co
   Co16       1.0    -0.000313     0.712687    -0.001119    Uiso  ? Co
   Co17       1.0    -0.000313     0.287000    -0.001119    Uiso  ? Co
   Co18       1.0     0.279399    -0.001438     0.000491    Uiso  ? Co
   Co19       1.0     0.279399     0.280837     0.000491    Uiso  ? Co
   Co20       1.0     0.719005     0.718438    -0.000068    Uiso  ? Co
   Co21       1.0     0.719005     0.000567    -0.000068    Uiso  ? Co
   Co22       1.0     0.385657     0.333865     0.333320    Uiso  ? Co
   Co23       1.0     0.385657     0.051791     0.333320    Uiso  ? Co
   Co24       1.0     0.666281     0.046016     0.332135    Uiso  ? Co
   Co25       1.0     0.666281     0.620264     0.332135    Uiso  ? Co
   Co26       1.0     0.946156     0.331843     0.333783    Uiso  ? Co
   Co27       1.0     0.946156     0.614312     0.333783    Uiso  ? Co
   Co28       1.0     0.052339     0.667209     0.666601    Uiso  ? Co
   Co29       1.0     0.052339     0.385131     0.666601    Uiso  ? Co
   Co30       1.0     0.332971     0.953621     0.665540    Uiso  ? Co
   Co31       1.0     0.332971     0.379350     0.665540    Uiso  ? Co
   Co32       1.0     0.612688     0.665132     0.667071    Uiso  ? Co
   Co33       1.0     0.612688     0.947557     0.667071    Uiso  ? Co
   Co34       1.0     0.678425     0.839212     0.183532    Uiso  ? Co
   Co35       1.0     0.345065     0.172533     0.517059    Uiso  ? Co
   Co36       1.0     0.011727     0.505864     0.850362    Uiso  ? Co
   Ni1        1.0     0.503014     0.497816     0.150148    Uiso  ? Ni
   Ni2        1.0     0.169747     0.831024     0.483479    Uiso  ? Ni
   Ni3        1.0     0.836454     0.164446     0.816757    Uiso  ? Ni
   Ni4        1.0     0.503014     0.005198     0.150148    Uiso  ? Ni
   Ni5        1.0     0.169747     0.338722     0.483479    Uiso  ? Ni
   Ni6        1.0     0.836454     0.672008     0.816757    Uiso  ? Ni
   Ni7        1.0     0.995451     0.497725     0.150415    Uiso  ? Ni
   Ni8        1.0     0.661816     0.830907     0.483743    Uiso  ? Ni
   Ni9        1.0     0.328652     0.164326     0.817063    Uiso  ? Ni
   Ni10       1.0     0.163477     0.835881     0.183436    Uiso  ? Ni
   Ni11       1.0     0.830107     0.169157     0.516703    Uiso  ? Ni
   Ni12       1.0     0.496905     0.502482     0.850054    Uiso  ? Ni
   Ni13       1.0     0.163477     0.327595     0.183436    Uiso  ? Ni
   Ni14       1.0     0.830107     0.660951     0.516703    Uiso  ? Ni
   Ni15       1.0     0.496905     0.994423     0.850054    Uiso  ? Ni
