
#======================================================================
# CRYSTAL DATA
#----------------------------------------------------------------------
data_VESTA_phase_1

_chemical_name_common                  'Sm6 Co51                              '
_cell_length_a                         8.386318
_cell_length_b                         8.374422
_cell_length_c                         12.028934
_cell_angle_alpha                      90.000000
_cell_angle_beta                       89.988152
_cell_angle_gamma                      119.953087
_cell_volume                           731.962902
_space_group_name_H-M_alt              'P 1'
_space_group_IT_number                 1

loop_
_space_group_symop_operation_xyz
   'x, y, z'

loop_
   _atom_site_label
   _atom_site_occupancy
   _atom_site_fract_x
   _atom_site_fract_y
   _atom_site_fract_z
   _atom_site_adp_type
   _atom_site_U_iso_or_equiv
   _atom_site_type_symbol
   Sm1        1.0     0.335980     0.667990     0.013242    Uiso  ? Sm
   Sm2        1.0     0.664235     0.332117    -0.012154    Uiso  ? Sm
   Sm3        1.0     0.332472     0.666237     0.321407    Uiso  ? Sm
   Sm4        1.0     0.000151     0.000076     0.345294    Uiso  ? Sm
   Sm5        1.0    -0.003075    -0.001537     0.654682    Uiso  ? Sm
   Sm6        1.0     0.669589     0.334794     0.679528    Uiso  ? Sm
   Co1        1.0    -0.001270    -0.000635     0.096541    Uiso  ? Co
   Co2        1.0     0.667133     0.333566     0.236752    Uiso  ? Co
   Co3        1.0     0.665486     0.332743     0.430158    Uiso  ? Co
   Co4        1.0     0.333720     0.666860     0.570034    Uiso  ? Co
   Co5        1.0     0.331234     0.665618     0.763472    Uiso  ? Co
   Co6        1.0    -0.000148    -0.000074     0.903431    Uiso  ? Co
   Co7        1.0     0.833609     0.166906     0.166338    Uiso  ? Co
   Co8        1.0     0.332702     0.166352     0.166625    Uiso  ? Co
   Co9        1.0     0.833609     0.666704     0.166338    Uiso  ? Co
   Co10       1.0     0.499957     0.499971     0.499730    Uiso  ? Co
   Co11       1.0    -0.000647     0.499676     0.500149    Uiso  ? Co
   Co12       1.0     0.499957    -0.000014     0.499730    Uiso  ? Co
   Co13       1.0     0.166884     0.333407     0.833024    Uiso  ? Co
   Co14       1.0     0.166884     0.833475     0.833024    Uiso  ? Co
   Co15       1.0     0.665373     0.832686     0.833551    Uiso  ? Co
   Co16       1.0     0.000040     0.713668    -0.001055    Uiso  ? Co
   Co17       1.0     0.000040     0.286372    -0.001055    Uiso  ? Co
   Co18       1.0     0.279942    -0.000995     0.000176    Uiso  ? Co
   Co19       1.0     0.279942     0.280936     0.000176    Uiso  ? Co
   Co20       1.0     0.719073     0.718388    -0.000067    Uiso  ? Co
   Co21       1.0     0.719073     0.000685    -0.000067    Uiso  ? Co
   Co22       1.0     0.384314     0.333081     0.333316    Uiso  ? Co
   Co23       1.0     0.384314     0.051232     0.333316    Uiso  ? Co
   Co24       1.0     0.666418     0.050862     0.333223    Uiso  ? Co
   Co25       1.0     0.666418     0.615555     0.333223    Uiso  ? Co
   Co26       1.0     0.948012     0.332752     0.333663    Uiso  ? Co
   Co27       1.0     0.948012     0.615259     0.333663    Uiso  ? Co
   Co28       1.0     0.052631     0.667360     0.666631    Uiso  ? Co
   Co29       1.0     0.052631     0.385272     0.666631    Uiso  ? Co
   Co30       1.0     0.332922     0.953453     0.665704    Uiso  ? Co
   Co31       1.0     0.332922     0.379469     0.665704    Uiso  ? Co
   Co32       1.0     0.612881     0.665366     0.666986    Uiso  ? Co
   Co33       1.0     0.612881     0.947516     0.666986    Uiso  ? Co
   Co34       1.0     0.344921     0.172461     0.516848    Uiso  ? Co
   Co35       1.0     0.011934     0.505967     0.850301    Uiso  ? Co
   Ni1        1.0     0.503189     0.496982     0.149897    Uiso  ? Ni
   Ni2        1.0     0.169622     0.831159     0.483248    Uiso  ? Ni
   Ni3        1.0     0.836345     0.164399     0.816813    Uiso  ? Ni
   Ni4        1.0     0.503189     0.006207     0.149897    Uiso  ? Ni
   Ni5        1.0     0.169622     0.338462     0.483248    Uiso  ? Ni
   Ni6        1.0     0.836345     0.671947     0.816813    Uiso  ? Ni
   Ni7        1.0     0.994212     0.497106     0.150407    Uiso  ? Ni
   Ni8        1.0     0.661678     0.830839     0.483061    Uiso  ? Ni
   Ni9        1.0     0.328539     0.164270     0.816834    Uiso  ? Ni
   Ni10       1.0     0.163498     0.836177     0.183420    Uiso  ? Ni
   Ni11       1.0     0.830282     0.169330     0.516978    Uiso  ? Ni
   Ni12       1.0     0.496890     0.502412     0.849991    Uiso  ? Ni
   Ni13       1.0     0.163498     0.327320     0.183420    Uiso  ? Ni
   Ni14       1.0     0.830282     0.660954     0.516978    Uiso  ? Ni
   Ni15       1.0     0.496890     0.994478     0.849991    Uiso  ? Ni
   Ni16       1.0     0.672761     0.836380     0.183801    Uiso  ? Ni
