
#======================================================================
# CRYSTAL DATA
#----------------------------------------------------------------------
data_VESTA_phase_1

_chemical_name_common                  'Sm6 Co51                              '
_cell_length_a                         8.386024
_cell_length_b                         8.380511
_cell_length_c                         12.030123
_cell_angle_alpha                      90.000000
_cell_angle_beta                       89.999161
_cell_angle_gamma                      119.978264
_cell_volume                           732.356200
_space_group_name_H-M_alt              'P 1'
_space_group_IT_number                 1

loop_
_space_group_symop_operation_xyz
   'x, y, z'

loop_
   _atom_site_label
   _atom_site_occupancy
   _atom_site_fract_x
   _atom_site_fract_y
   _atom_site_fract_z
   _atom_site_adp_type
   _atom_site_U_iso_or_equiv
   _atom_site_type_symbol
   Sm1        1.0     0.335735     0.667868     0.013236    Uiso  ? Sm
   Sm2        1.0     0.664728     0.332364     0.987798    Uiso  ? Sm
   Sm3        1.0     0.333223     0.666612     0.320949    Uiso  ? Sm
   Sm4        1.0     0.999995     0.999998     0.345661    Uiso  ? Sm
   Sm5        1.0     0.999343     0.999672     0.654584    Uiso  ? Sm
   Sm6        1.0     0.666748     0.333374     0.678823    Uiso  ? Sm
   Co1        1.0     0.999002     0.999501     0.096603    Uiso  ? Co
   Co2        1.0     0.666522     0.333261     0.236782    Uiso  ? Co
   Co3        1.0     0.666518     0.333258     0.430128    Uiso  ? Co
   Co4        1.0     0.333717     0.666859     0.569869    Uiso  ? Co
   Co5        1.0     0.332050     0.666025     0.763595    Uiso  ? Co
   Co6        1.0     0.999974     0.999987     0.903185    Uiso  ? Co
   Co7        1.0     0.833475     0.166844     0.166526    Uiso  ? Co
   Co8        1.0     0.332830     0.166415     0.166730    Uiso  ? Co
   Co9        1.0     0.833476     0.666632     0.166526    Uiso  ? Co
   Co10       1.0     0.500026     0.500067     0.499830    Uiso  ? Co
   Co11       1.0     0.999989     0.499994     0.499890    Uiso  ? Co
   Co12       1.0     0.500026     0.999959     0.499830    Uiso  ? Co
   Co13       1.0     0.166645     0.333379     0.833285    Uiso  ? Co
   Co14       1.0     0.166645     0.833265     0.833285    Uiso  ? Co
   Co15       1.0     0.665944     0.832972     0.833593    Uiso  ? Co
   Co16       1.0     0.999988     0.714151     0.999134    Uiso  ? Co
   Co17       1.0     0.999988     0.285836     0.999134    Uiso  ? Co
   Co18       1.0     0.280335     0.999308     0.000067    Uiso  ? Co
   Co19       1.0     0.280335     0.281027     0.000067    Uiso  ? Co
   Co20       1.0     0.719195     0.718506     0.000011    Uiso  ? Co
   Co21       1.0     0.719196     0.000689     0.000011    Uiso  ? Co
   Co22       1.0     0.384526     0.333223     0.333354    Uiso  ? Co
   Co23       1.0     0.384526     0.051302     0.333353    Uiso  ? Co
   Co24       1.0     0.666776     0.051570     0.333307    Uiso  ? Co
   Co25       1.0     0.666776     0.615204     0.333307    Uiso  ? Co
   Co26       1.0     0.948394     0.333136     0.333386    Uiso  ? Co
   Co27       1.0     0.948394     0.615257     0.333386    Uiso  ? Co
   Co28       1.0     0.051388     0.666468     0.666621    Uiso  ? Co
   Co29       1.0     0.051388     0.384921     0.666621    Uiso  ? Co
   Co30       1.0     0.333011     0.948570     0.666565    Uiso  ? Co
   Co31       1.0     0.333011     0.384441     0.666565    Uiso  ? Co
   Co32       1.0     0.614685     0.666341     0.666889    Uiso  ? Co
   Co33       1.0     0.614685     0.948345     0.666889    Uiso  ? Co
   Co34       1.0     0.011944     0.505972     0.849991    Uiso  ? Co
   Ni1        1.0     0.503038     0.496879     0.149992    Uiso  ? Ni
   Ni2        1.0     0.169823     0.830436     0.482895    Uiso  ? Ni
   Ni3        1.0     0.836184     0.164454     0.816617    Uiso  ? Ni
   Ni4        1.0     0.503038     0.006159     0.149992    Uiso  ? Ni
   Ni5        1.0     0.169823     0.339386     0.482895    Uiso  ? Ni
   Ni6        1.0     0.836184     0.671731     0.816617    Uiso  ? Ni
   Ni7        1.0     0.994009     0.497004     0.150205    Uiso  ? Ni
   Ni8        1.0     0.660735     0.830367     0.483126    Uiso  ? Ni
   Ni9        1.0     0.328273     0.164137     0.816121    Uiso  ? Ni
   Ni10       1.0     0.163428     0.836190     0.183377    Uiso  ? Ni
   Ni11       1.0     0.830389     0.169645     0.517031    Uiso  ? Ni
   Ni12       1.0     0.497023     0.502593     0.850266    Uiso  ? Ni
   Ni13       1.0     0.163428     0.327237     0.183377    Uiso  ? Ni
   Ni14       1.0     0.830389     0.660744     0.517031    Uiso  ? Ni
   Ni15       1.0     0.497023     0.994430     0.850266    Uiso  ? Ni
   Ni16       1.0     0.673037     0.836518     0.183733    Uiso  ? Ni
   Ni17       1.0     0.339026     0.169513     0.517093    Uiso  ? Ni
