
#======================================================================
# CRYSTAL DATA
#----------------------------------------------------------------------
data_VESTA_phase_1

_chemical_name_common                  'Sm6 Co51                              '
_cell_length_a                         8.384791
_cell_length_b                         8.384791
_cell_length_c                         12.031756
_cell_angle_alpha                      90.000000
_cell_angle_beta                       90.000000
_cell_angle_gamma                      120.000000
_cell_volume                           732.561659
_space_group_name_H-M_alt              'P 1'
_space_group_IT_number                 1

loop_
_space_group_symop_operation_xyz
   'x, y, z'

loop_
   _atom_site_label
   _atom_site_occupancy
   _atom_site_fract_x
   _atom_site_fract_y
   _atom_site_fract_z
   _atom_site_adp_type
   _atom_site_U_iso_or_equiv
   _atom_site_type_symbol
   Sm1        1.0     0.333333     0.666667     0.012277    Uiso  ? Sm
   Sm2        1.0     0.666667     0.333333    -0.012277    Uiso  ? Sm
   Sm3        1.0     0.333333     0.666667     0.320814    Uiso  ? Sm
   Sm4        1.0     -0.000000     -0.000000     0.345666    Uiso  ? Sm
   Sm5        1.0     -0.000000     -0.000000     0.654334    Uiso  ? Sm
   Sm6        1.0     0.666667     0.333333     0.679186    Uiso  ? Sm
   Co1        1.0     -0.000000     -0.000000     0.096847    Uiso  ? Co
   Co2        1.0     0.666667     0.333333     0.236582    Uiso  ? Co
   Co3        1.0     0.666667     0.333333     0.430196    Uiso  ? Co
   Co4        1.0     0.333333     0.666667     0.569804    Uiso  ? Co
   Co5        1.0     0.333333     0.666667     0.763418    Uiso  ? Co
   Co6        1.0     -0.000000     -0.000000     0.903153    Uiso  ? Co
   Co7        1.0     0.833325     0.166675     0.166677    Uiso  ? Co
   Co8        1.0     0.333349     0.166675     0.166677    Uiso  ? Co
   Co9        1.0     0.833325     0.666651     0.166677    Uiso  ? Co
   Co10       1.0     0.500000     0.500000     0.500000    Uiso  ? Co
   Co11       1.0     -0.000000     0.500000     0.500000    Uiso  ? Co
   Co12       1.0     0.500000     -0.000000     0.500000    Uiso  ? Co
   Co13       1.0     0.166675     0.333349     0.833323    Uiso  ? Co
   Co14       1.0     0.166675     0.833325     0.833323    Uiso  ? Co
   Co15       1.0     0.666651     0.833325     0.833323    Uiso  ? Co
   Co16       1.0     -0.000000     0.718061     0.000000    Uiso  ? Co
   Co17       1.0     0.000000     0.281939     0.000000    Uiso  ? Co
   Co18       1.0     0.281939     -0.000000     0.000000    Uiso  ? Co
   Co19       1.0     0.281939     0.281939     0.000000    Uiso  ? Co
   Co20       1.0     0.718061     0.718061     0.000000    Uiso  ? Co
   Co21       1.0     0.718061     0.000000     0.000000    Uiso  ? Co
   Co22       1.0     0.384885     0.333298     0.333399    Uiso  ? Co
   Co23       1.0     0.384885     0.051586     0.333399    Uiso  ? Co
   Co24       1.0     0.666702     0.051586     0.333399    Uiso  ? Co
   Co25       1.0     0.666702     0.615115     0.333399    Uiso  ? Co
   Co26       1.0     0.948414     0.333298     0.333399    Uiso  ? Co
   Co27       1.0     0.948414     0.615115     0.333399    Uiso  ? Co
   Co28       1.0     0.051586     0.666702     0.666601    Uiso  ? Co
   Co29       1.0     0.051586     0.384885     0.666601    Uiso  ? Co
   Co30       1.0     0.333298     0.948414     0.666601    Uiso  ? Co
   Co31       1.0     0.333298     0.384885     0.666601    Uiso  ? Co
   Co32       1.0     0.615115     0.666702     0.666601    Uiso  ? Co
   Co33       1.0     0.615115     0.948414     0.666601    Uiso  ? Co
   Ni1        1.0     0.502968     0.497032     0.149792    Uiso  ? Ni
   Ni2        1.0     0.169602     0.830398     0.482988    Uiso  ? Ni
   Ni3        1.0     0.836346     0.163654     0.816328    Uiso  ? Ni
   Ni4        1.0     0.502968     0.005936     0.149792    Uiso  ? Ni
   Ni5        1.0     0.169602     0.339203     0.482988    Uiso  ? Ni
   Ni6        1.0     0.836346     0.672693     0.816328    Uiso  ? Ni
   Ni7        1.0     0.994064     0.497032     0.149792    Uiso  ? Ni
   Ni8        1.0     0.660797     0.830398     0.482988    Uiso  ? Ni
   Ni9        1.0     0.327307     0.163654     0.816328    Uiso  ? Ni
   Ni10       1.0     0.163654     0.836346     0.183672    Uiso  ? Ni
   Ni11       1.0     0.830398     0.169602     0.517012    Uiso  ? Ni
   Ni12       1.0     0.497032     0.502968     0.850208    Uiso  ? Ni
   Ni13       1.0     0.163654     0.327307     0.183672    Uiso  ? Ni
   Ni14       1.0     0.830398     0.660797     0.517012    Uiso  ? Ni
   Ni15       1.0     0.497032     0.994064     0.850208    Uiso  ? Ni
   Ni16       1.0     0.672693     0.836346     0.183672    Uiso  ? Ni
   Ni17       1.0     0.339203     0.169602     0.517012    Uiso  ? Ni
   Ni18       1.0     0.005936     0.502968     0.850208    Uiso  ? Ni
