
#======================================================================
# CRYSTAL DATA
#----------------------------------------------------------------------
data_VESTA_phase_1

_chemical_name_common                  'Sm6 Co51                              '
_cell_length_a                         8.339653
_cell_length_b                         8.339653
_cell_length_c                         12.112613
_cell_angle_alpha                      90.026802
_cell_angle_beta                       89.973198
_cell_angle_gamma                      119.763069
_cell_volume                           731.301200
_space_group_name_H-M_alt              'P 1'
_space_group_IT_number                 1

loop_
_space_group_symop_operation_xyz
   'x, y, z'

loop_
   _atom_site_label
   _atom_site_occupancy
   _atom_site_fract_x
   _atom_site_fract_y
   _atom_site_fract_z
   _atom_site_adp_type
   _atom_site_U_iso_or_equiv
   _atom_site_type_symbol
   Sm1        1.0     0.334499     0.665501     0.011909    Uiso  ? Sm
   Sm2        1.0     0.665409     0.334591    -0.010733    Uiso  ? Sm
   Sm3        1.0     0.332178     0.667822     0.322542    Uiso  ? Sm
   Sm4        1.0     0.001471    -0.001471     0.345313    Uiso  ? Sm
   Sm5        1.0     0.000048    -0.000048     0.655537    Uiso  ? Sm
   Sm6        1.0     0.667011     0.332989     0.678093    Uiso  ? Sm
   Co1        1.0    -0.000197     0.000197     0.096406    Uiso  ? Co
   Co2        1.0     0.667246     0.332754     0.237429    Uiso  ? Co
   Co3        1.0     0.666601     0.333399     0.429298    Uiso  ? Co
   Co4        1.0     0.334059     0.665941     0.570966    Uiso  ? Co
   Co5        1.0     0.333098     0.666902     0.762829    Uiso  ? Co
   Co6        1.0    -0.000130     0.000130     0.904004    Uiso  ? Co
   Co7        1.0     0.832842     0.167158     0.166517    Uiso  ? Co
   Co8        1.0     0.333207     0.166658     0.166351    Uiso  ? Co
   Co9        1.0     0.833342     0.666793     0.166351    Uiso  ? Co
   Co10       1.0     0.499645     0.500355     0.499412    Uiso  ? Co
   Co11       1.0    -0.000422     0.499537     0.499916    Uiso  ? Co
   Co12       1.0     0.500463     0.000422     0.499916    Uiso  ? Co
   Co13       1.0     0.166457     0.333132     0.833139    Uiso  ? Co
   Co14       1.0     0.166710     0.833290     0.833234    Uiso  ? Co
   Co15       1.0     0.666868     0.833543     0.833139    Uiso  ? Co
   Co16       1.0     0.001097     0.713400     0.000296    Uiso  ? Co
   Co17       1.0    -0.000667     0.287063     0.000054    Uiso  ? Co
   Co18       1.0     0.286600    -0.001097     0.000296    Uiso  ? Co
   Co19       1.0     0.283158     0.283513    -0.000257    Uiso  ? Co
   Co20       1.0     0.716487     0.716842    -0.000257    Uiso  ? Co
   Co21       1.0     0.712937     0.000667     0.000054    Uiso  ? Co
   Co22       1.0     0.379551     0.334645     0.332491    Uiso  ? Co
   Co23       1.0     0.383422     0.050514     0.333136    Uiso  ? Co
   Co24       1.0     0.667737     0.046821     0.333636    Uiso  ? Co
   Co25       1.0     0.665355     0.620449     0.332491    Uiso  ? Co
   Co26       1.0     0.953179     0.332263     0.333636    Uiso  ? Co
   Co27       1.0     0.949486     0.616578     0.333136    Uiso  ? Co
   Co28       1.0     0.046855     0.667279     0.665934    Uiso  ? Co
   Co29       1.0     0.048118     0.381456     0.666721    Uiso  ? Co
   Co30       1.0     0.332721     0.953145     0.665934    Uiso  ? Co
   Co31       1.0     0.334102     0.380698     0.666751    Uiso  ? Co
   Co32       1.0     0.619302     0.665898     0.666751    Uiso  ? Co
   Co33       1.0     0.618544     0.951882     0.666721    Uiso  ? Co
   Co34       1.0     0.995233     0.497503     0.153196    Uiso  ? Co
   Co35       1.0     0.502497     0.004767     0.153196    Uiso  ? Co
   Co36       1.0     0.674673     0.838198     0.181106    Uiso  ? Co
   Co37       1.0     0.161802     0.325327     0.181106    Uiso  ? Co
   Co38       1.0     0.164665     0.835335     0.180317    Uiso  ? Co
   Co39       1.0     0.662456     0.831028     0.486828    Uiso  ? Co
   Co40       1.0     0.168972     0.337544     0.486828    Uiso  ? Co
   Co41       1.0     0.341210     0.171195     0.513963    Uiso  ? Co
   Co42       1.0     0.828805     0.658790     0.513963    Uiso  ? Co
   Co43       1.0     0.831793     0.168207     0.513173    Uiso  ? Co
   Co44       1.0     0.328475     0.164032     0.820240    Uiso  ? Co
   Co45       1.0     0.835968     0.671525     0.820240    Uiso  ? Co
   Co46       1.0     0.835658     0.164342     0.820132    Uiso  ? Co
   Co47       1.0     0.004599     0.502487     0.846410    Uiso  ? Co
   Co48       1.0     0.497513     0.995401     0.846410    Uiso  ? Co
   Co49       1.0     0.497618     0.502382     0.847306    Uiso  ? Co
   Ni1        1.0     0.501298     0.498702     0.151683    Uiso  ? Ni
   Ni2        1.0     0.168376     0.831624     0.484809    Uiso  ? Ni
