
#======================================================================
# CRYSTAL DATA
#----------------------------------------------------------------------
data_VESTA_phase_1

_chemical_name_common                  'Sm6 Co51                              '
_cell_length_a                         8.337175
_cell_length_b                         8.337175
_cell_length_c                         12.104352
_cell_angle_alpha                      90.057121
_cell_angle_beta                       89.942879
_cell_angle_gamma                      119.651306
_cell_volume                           731.181223
_space_group_name_H-M_alt              'P 1'
_space_group_IT_number                 1

loop_
_space_group_symop_operation_xyz
   'x, y, z'

loop_
   _atom_site_label
   _atom_site_occupancy
   _atom_site_fract_x
   _atom_site_fract_y
   _atom_site_fract_z
   _atom_site_adp_type
   _atom_site_U_iso_or_equiv
   _atom_site_type_symbol
   Sm1        1.0     0.334814     0.665186     0.012129    Uiso  ? Sm
   Sm2        1.0     0.665437     0.334563    -0.010797    Uiso  ? Sm
   Sm3        1.0     0.332150     0.667850     0.322566    Uiso  ? Sm
   Sm4        1.0     0.001533    -0.001533     0.345395    Uiso  ? Sm
   Sm5        1.0    -0.001196     0.001196     0.655954    Uiso  ? Sm
   Sm6        1.0     0.668121     0.331879     0.678695    Uiso  ? Sm
   Co1        1.0    -0.000237     0.000237     0.096273    Uiso  ? Co
   Co2        1.0     0.667217     0.332783     0.237393    Uiso  ? Co
   Co3        1.0     0.666426     0.333574     0.429624    Uiso  ? Co
   Co4        1.0     0.333968     0.666032     0.570711    Uiso  ? Co
   Co5        1.0     0.333085     0.666915     0.762938    Uiso  ? Co
   Co6        1.0     0.000585    -0.000585     0.904200    Uiso  ? Co
   Co7        1.0     0.833083     0.166917     0.166278    Uiso  ? Co
   Co8        1.0     0.333141     0.166437     0.166345    Uiso  ? Co
   Co9        1.0     0.833563     0.666859     0.166345    Uiso  ? Co
   Co10       1.0     0.499640     0.500360     0.499552    Uiso  ? Co
   Co11       1.0    -0.000160     0.499794     0.499661    Uiso  ? Co
   Co12       1.0     0.500206     0.000160     0.499661    Uiso  ? Co
   Co13       1.0     0.166803     0.333427     0.833038    Uiso  ? Co
   Co14       1.0     0.166302     0.833699     0.832988    Uiso  ? Co
   Co15       1.0     0.666573     0.833197     0.833038    Uiso  ? Co
   Co16       1.0     0.001427     0.713478     0.000347    Uiso  ? Co
   Co17       1.0    -0.001308     0.287312    -0.000725    Uiso  ? Co
   Co18       1.0     0.286522    -0.001427     0.000347    Uiso  ? Co
   Co19       1.0     0.282560     0.282973    -0.000212    Uiso  ? Co
   Co20       1.0     0.717027     0.717440    -0.000212    Uiso  ? Co
   Co21       1.0     0.712688     0.001308    -0.000725    Uiso  ? Co
   Co22       1.0     0.379539     0.334638     0.332500    Uiso  ? Co
   Co23       1.0     0.383700     0.050798     0.333135    Uiso  ? Co
   Co24       1.0     0.668125     0.047018     0.333718    Uiso  ? Co
   Co25       1.0     0.665362     0.620461     0.332500    Uiso  ? Co
   Co26       1.0     0.952982     0.331875     0.333718    Uiso  ? Co
   Co27       1.0     0.949202     0.616300     0.333135    Uiso  ? Co
   Co28       1.0     0.046114     0.667995     0.665864    Uiso  ? Co
   Co29       1.0     0.050409     0.384179     0.666410    Uiso  ? Co
   Co30       1.0     0.332005     0.953886     0.665864    Uiso  ? Co
   Co31       1.0     0.334744     0.380308     0.667011    Uiso  ? Co
   Co32       1.0     0.619692     0.665256     0.667011    Uiso  ? Co
   Co33       1.0     0.615821     0.949591     0.666410    Uiso  ? Co
   Co34       1.0     0.995300     0.497293     0.153396    Uiso  ? Co
   Co35       1.0     0.502707     0.004700     0.153396    Uiso  ? Co
   Co36       1.0     0.674603     0.838066     0.181022    Uiso  ? Co
   Co37       1.0     0.161934     0.325397     0.181022    Uiso  ? Co
   Co38       1.0     0.164760     0.835240     0.180501    Uiso  ? Co
   Co39       1.0     0.662110     0.830678     0.486565    Uiso  ? Co
   Co40       1.0     0.169322     0.337890     0.486565    Uiso  ? Co
   Co41       1.0     0.341091     0.171291     0.514256    Uiso  ? Co
   Co42       1.0     0.828709     0.658909     0.514256    Uiso  ? Co
   Co43       1.0     0.831470     0.168530     0.513937    Uiso  ? Co
   Co44       1.0     0.328602     0.164029     0.820000    Uiso  ? Co
   Co45       1.0     0.835971     0.671398     0.820000    Uiso  ? Co
   Co46       1.0     0.007861     0.504725     0.847518    Uiso  ? Co
   Co47       1.0     0.495275     0.992139     0.847518    Uiso  ? Co
   Co48       1.0     0.498064     0.501936     0.847177    Uiso  ? Co
   Ni1        1.0     0.501484     0.498516     0.151533    Uiso  ? Ni
   Ni2        1.0     0.168218     0.831783     0.484966    Uiso  ? Ni
   Ni3        1.0     0.834854     0.165146     0.818282    Uiso  ? Ni
