
#======================================================================
# CRYSTAL DATA
#----------------------------------------------------------------------
data_VESTA_phase_1

_chemical_name_common                  'Sm6 Co51                              '
_cell_length_a                         8.349473
_cell_length_b                         8.336114
_cell_length_c                         12.096000
_cell_angle_alpha                      90.034813
_cell_angle_beta                       89.946953
_cell_angle_gamma                      119.722313
_cell_volume                           731.144724
_space_group_name_H-M_alt              'P 1'
_space_group_IT_number                 1

loop_
_space_group_symop_operation_xyz
   'x, y, z'

loop_
   _atom_site_label
   _atom_site_occupancy
   _atom_site_fract_x
   _atom_site_fract_y
   _atom_site_fract_z
   _atom_site_adp_type
   _atom_site_U_iso_or_equiv
   _atom_site_type_symbol
   Sm1        1.0     0.335895     0.667345     0.012534    Uiso  ? Sm
   Sm2        1.0     0.664158     0.332005     0.989835    Uiso  ? Sm
   Sm3        1.0     0.332543     0.667885     0.322310    Uiso  ? Sm
   Sm4        1.0     0.001668     0.999141     0.345649    Uiso  ? Sm
   Sm5        1.0     0.998902     0.001105     0.656002    Uiso  ? Sm
   Sm6        1.0     0.668066     0.332246     0.678839    Uiso  ? Sm
   Co1        1.0     0.999298     0.999996     0.096363    Uiso  ? Co
   Co2        1.0     0.667581     0.333836     0.237707    Uiso  ? Co
   Co3        1.0     0.666409     0.333395     0.429656    Uiso  ? Co
   Co4        1.0     0.333735     0.665834     0.570685    Uiso  ? Co
   Co5        1.0     0.332998     0.666629     0.763218    Uiso  ? Co
   Co6        1.0     0.000794     0.999527     0.904095    Uiso  ? Co
   Co7        1.0     0.833000     0.166930     0.166182    Uiso  ? Co
   Co8        1.0     0.332079     0.166117     0.166167    Uiso  ? Co
   Co9        1.0     0.833134     0.665705     0.165966    Uiso  ? Co
   Co10       1.0     0.499764     0.500513     0.499416    Uiso  ? Co
   Co11       1.0     0.999940     0.499794     0.499598    Uiso  ? Co
   Co12       1.0     0.500156     0.000340     0.499308    Uiso  ? Co
   Co13       1.0     0.166716     0.333601     0.833140    Uiso  ? Co
   Co14       1.0     0.166191     0.833566     0.832789    Uiso  ? Co
   Co15       1.0     0.666676     0.833107     0.832786    Uiso  ? Co
   Co16       1.0     0.000803     0.712488     0.000269    Uiso  ? Co
   Co17       1.0     0.999439     0.288168     0.999419    Uiso  ? Co
   Co18       1.0     0.283555     0.998522     0.999956    Uiso  ? Co
   Co19       1.0     0.283162     0.284261     0.999948    Uiso  ? Co
   Co20       1.0     0.716342     0.715914     0.999676    Uiso  ? Co
   Co21       1.0     0.715529     0.000618     0.998948    Uiso  ? Co
   Co22       1.0     0.380184     0.334536     0.332612    Uiso  ? Co
   Co23       1.0     0.383105     0.050060     0.332354    Uiso  ? Co
   Co24       1.0     0.667403     0.046419     0.332891    Uiso  ? Co
   Co25       1.0     0.665989     0.620244     0.332684    Uiso  ? Co
   Co26       1.0     0.952021     0.331983     0.333706    Uiso  ? Co
   Co27       1.0     0.949369     0.616796     0.333269    Uiso  ? Co
   Co28       1.0     0.046414     0.667906     0.665866    Uiso  ? Co
   Co29       1.0     0.050064     0.383936     0.666517    Uiso  ? Co
   Co30       1.0     0.332416     0.953898     0.665897    Uiso  ? Co
   Co31       1.0     0.334515     0.380553     0.666950    Uiso  ? Co
   Co32       1.0     0.619288     0.665275     0.666945    Uiso  ? Co
   Co33       1.0     0.615819     0.949838     0.666318    Uiso  ? Co
   Co34       1.0     0.995962     0.497552     0.153340    Uiso  ? Co
   Co35       1.0     0.678664     0.839317     0.182148    Uiso  ? Co
   Co36       1.0     0.162635     0.326711     0.180941    Uiso  ? Co
   Co37       1.0     0.162804     0.836300     0.181734    Uiso  ? Co
   Co38       1.0     0.662091     0.830847     0.486527    Uiso  ? Co
   Co39       1.0     0.169346     0.338030     0.486281    Uiso  ? Co
   Co40       1.0     0.341235     0.171525     0.514366    Uiso  ? Co
   Co41       1.0     0.828787     0.658955     0.514631    Uiso  ? Co
   Co42       1.0     0.831337     0.168526     0.513915    Uiso  ? Co
   Co43       1.0     0.328386     0.164091     0.819730    Uiso  ? Co
   Co44       1.0     0.835985     0.671304     0.820175    Uiso  ? Co
   Co45       1.0     0.007796     0.504549     0.847827    Uiso  ? Co
   Co46       1.0     0.495257     0.991968     0.848250    Uiso  ? Co
   Co47       1.0     0.497913     0.501690     0.847328    Uiso  ? Co
   Ni1        1.0     0.501697     0.498741     0.151629    Uiso  ? Ni
   Ni2        1.0     0.168413     0.831876     0.484976    Uiso  ? Ni
   Ni3        1.0     0.834781     0.165196     0.818237    Uiso  ? Ni
   Ni4        1.0     0.501792     0.002792     0.151492    Uiso  ? Ni
