
#======================================================================
# CRYSTAL DATA
#----------------------------------------------------------------------
data_VESTA_phase_1

_chemical_name_common                  'Sm6 Co51                              '
_cell_length_a                         8.360928
_cell_length_b                         8.334948
_cell_length_c                         12.083273
_cell_angle_alpha                      90.019630
_cell_angle_beta                       89.934875
_cell_angle_gamma                      119.784447
_cell_volume                           730.821774
_space_group_name_H-M_alt              'P 1'
_space_group_IT_number                 1

loop_
_space_group_symop_operation_xyz
   'x, y, z'

loop_
   _atom_site_label
   _atom_site_occupancy
   _atom_site_fract_x
   _atom_site_fract_y
   _atom_site_fract_z
   _atom_site_adp_type
   _atom_site_U_iso_or_equiv
   _atom_site_type_symbol
   Sm1        1.0     0.335893     0.667516     0.012533    Uiso  ? Sm
   Sm2        1.0     0.664086     0.332069    -0.010181    Uiso  ? Sm
   Sm3        1.0     0.330963     0.665432     0.322996    Uiso  ? Sm
   Sm4        1.0     0.002915     0.001286     0.346175    Uiso  ? Sm
   Sm5        1.0    -0.000838     0.001292     0.655857    Uiso  ? Sm
   Sm6        1.0     0.668310     0.332688     0.679091    Uiso  ? Sm
   Co1        1.0    -0.000691    -0.000156     0.096737    Uiso  ? Co
   Co2        1.0     0.667722     0.333851     0.237534    Uiso  ? Co
   Co3        1.0     0.665972     0.333181     0.429626    Uiso  ? Co
   Co4        1.0     0.334397     0.667275     0.570882    Uiso  ? Co
   Co5        1.0     0.332963     0.666450     0.763179    Uiso  ? Co
   Co6        1.0     0.000612    -0.000622     0.904145    Uiso  ? Co
   Co7        1.0     0.832950     0.166935     0.165911    Uiso  ? Co
   Co8        1.0     0.332117     0.166015     0.165956    Uiso  ? Co
   Co9        1.0     0.833062     0.665849     0.166073    Uiso  ? Co
   Co10       1.0     0.499805     0.500490     0.499248    Uiso  ? Co
   Co11       1.0    -0.001566     0.499288     0.499458    Uiso  ? Co
   Co12       1.0     0.499848    -0.000740     0.498938    Uiso  ? Co
   Co13       1.0     0.166753     0.333617     0.832780    Uiso  ? Co
   Co14       1.0     0.166291     0.833639     0.832630    Uiso  ? Co
   Co15       1.0     0.666755     0.833071     0.832735    Uiso  ? Co
   Co16       1.0     0.000668     0.712657     0.000231    Uiso  ? Co
   Co17       1.0    -0.000175     0.288438    -0.000643    Uiso  ? Co
   Co18       1.0     0.283369    -0.001537    -0.000121    Uiso  ? Co
   Co19       1.0     0.282878     0.284200    -0.000166    Uiso  ? Co
   Co20       1.0     0.716346     0.716008    -0.000242    Uiso  ? Co
   Co21       1.0     0.715731     0.000649    -0.001097    Uiso  ? Co
   Co22       1.0     0.382508     0.333863     0.332284    Uiso  ? Co
   Co23       1.0     0.382682     0.048691     0.332183    Uiso  ? Co
   Co24       1.0     0.666852     0.045149     0.332721    Uiso  ? Co
   Co25       1.0     0.666411     0.621170     0.332752    Uiso  ? Co
   Co26       1.0     0.949515     0.331710     0.333350    Uiso  ? Co
   Co27       1.0     0.949646     0.617707     0.333424    Uiso  ? Co
   Co28       1.0     0.046923     0.667861     0.665880    Uiso  ? Co
   Co29       1.0     0.049970     0.383676     0.665835    Uiso  ? Co
   Co30       1.0     0.332919     0.953829     0.665985    Uiso  ? Co
   Co31       1.0     0.334019     0.379867     0.666241    Uiso  ? Co
   Co32       1.0     0.618471     0.665263     0.667005    Uiso  ? Co
   Co33       1.0     0.615645     0.949984     0.666406    Uiso  ? Co
   Co34       1.0     0.995660     0.497687     0.153064    Uiso  ? Co
   Co35       1.0     0.678330     0.839062     0.182421    Uiso  ? Co
   Co36       1.0     0.162550     0.326408     0.181594    Uiso  ? Co
   Co37       1.0     0.162762     0.836157     0.181844    Uiso  ? Co
   Co38       1.0     0.662802     0.831136     0.486465    Uiso  ? Co
   Co39       1.0     0.345350     0.172764     0.515587    Uiso  ? Co
   Co40       1.0     0.829400     0.660108     0.514611    Uiso  ? Co
   Co41       1.0     0.829360     0.169512     0.515068    Uiso  ? Co
   Co42       1.0     0.328521     0.164242     0.819648    Uiso  ? Co
   Co43       1.0     0.836019     0.671451     0.819834    Uiso  ? Co
   Co44       1.0     0.007896     0.504738     0.848072    Uiso  ? Co
   Co45       1.0     0.495432     0.992134     0.848633    Uiso  ? Co
   Co46       1.0     0.497871     0.501803     0.847432    Uiso  ? Co
   Ni1        1.0     0.501591     0.498851     0.151567    Uiso  ? Ni
   Ni2        1.0     0.168530     0.832154     0.485078    Uiso  ? Ni
   Ni3        1.0     0.835031     0.165228     0.818224    Uiso  ? Ni
   Ni4        1.0     0.501675     0.002527     0.151615    Uiso  ? Ni
   Ni5        1.0     0.168522     0.336426     0.484910    Uiso  ? Ni
