
#======================================================================
# CRYSTAL DATA
#----------------------------------------------------------------------
data_VESTA_phase_1

_chemical_name_common                  'Sm6 Co51                              '
_cell_length_a                         8.373440
_cell_length_b                         8.335379
_cell_length_c                         12.078685
_cell_angle_alpha                      90.000000
_cell_angle_beta                       89.923363
_cell_angle_gamma                      119.849747
_cell_volume                           731.197258
_space_group_name_H-M_alt              'P 1'
_space_group_IT_number                 1

loop_
_space_group_symop_operation_xyz
   'x, y, z'

loop_
   _atom_site_label
   _atom_site_occupancy
   _atom_site_fract_x
   _atom_site_fract_y
   _atom_site_fract_z
   _atom_site_adp_type
   _atom_site_U_iso_or_equiv
   _atom_site_type_symbol
   Sm1        1.0     0.336163     0.668082     0.013019    Uiso  ? Sm
   Sm2        1.0     0.664308     0.332154    -0.010379    Uiso  ? Sm
   Sm3        1.0     0.330947     0.665474     0.323076    Uiso  ? Sm
   Sm4        1.0     0.002799     0.001400     0.346259    Uiso  ? Sm
   Sm5        1.0    -0.002350    -0.001175     0.656448    Uiso  ? Sm
   Sm6        1.0     0.669437     0.334718     0.679560    Uiso  ? Sm
   Co1        1.0    -0.000696    -0.000348     0.096612    Uiso  ? Co
   Co2        1.0     0.667598     0.333798     0.237496    Uiso  ? Co
   Co3        1.0     0.665922     0.332960     0.429917    Uiso  ? Co
   Co4        1.0     0.334490     0.667246     0.570820    Uiso  ? Co
   Co5        1.0     0.332508     0.666254     0.763278    Uiso  ? Co
   Co6        1.0     0.000984     0.000492     0.904315    Uiso  ? Co
   Co7        1.0     0.833160     0.167128     0.165720    Uiso  ? Co
   Co8        1.0     0.331971     0.165986     0.165908    Uiso  ? Co
   Co9        1.0     0.833160     0.666033     0.165720    Uiso  ? Co
   Co10       1.0     0.499828     0.500461     0.498948    Uiso  ? Co
   Co11       1.0    -0.001439     0.499280     0.499258    Uiso  ? Co
   Co12       1.0     0.499828    -0.000632     0.498948    Uiso  ? Co
   Co13       1.0     0.166516     0.332702     0.832394    Uiso  ? Co
   Co14       1.0     0.166516     0.833813     0.832394    Uiso  ? Co
   Co15       1.0     0.665438     0.832719     0.832533    Uiso  ? Co
   Co16       1.0     0.000171     0.711823    -0.000581    Uiso  ? Co
   Co17       1.0     0.000171     0.288348    -0.000581    Uiso  ? Co
   Co18       1.0     0.282774    -0.001625    -0.000060    Uiso  ? Co
   Co19       1.0     0.282774     0.284400    -0.000060    Uiso  ? Co
   Co20       1.0     0.716081     0.715503    -0.001037    Uiso  ? Co
   Co21       1.0     0.716081     0.000578    -0.001037    Uiso  ? Co
   Co22       1.0     0.382612     0.333866     0.332248    Uiso  ? Co
   Co23       1.0     0.382612     0.048745     0.332248    Uiso  ? Co
   Co24       1.0     0.666779     0.045357     0.332695    Uiso  ? Co
   Co25       1.0     0.666779     0.621421     0.332695    Uiso  ? Co
   Co26       1.0     0.949289     0.331611     0.333285    Uiso  ? Co
   Co27       1.0     0.949289     0.617677     0.333285    Uiso  ? Co
   Co28       1.0     0.049417     0.667195     0.665650    Uiso  ? Co
   Co29       1.0     0.049417     0.382222     0.665650    Uiso  ? Co
   Co30       1.0     0.333462     0.954822     0.666057    Uiso  ? Co
   Co31       1.0     0.333462     0.378640     0.666057    Uiso  ? Co
   Co32       1.0     0.615929     0.664944     0.666582    Uiso  ? Co
   Co33       1.0     0.615929     0.950986     0.666582    Uiso  ? Co
   Co34       1.0     0.995853     0.497926     0.153033    Uiso  ? Co
   Co35       1.0     0.678536     0.839267     0.182578    Uiso  ? Co
   Co36       1.0     0.162604     0.326440     0.181967    Uiso  ? Co
   Co37       1.0     0.162604     0.836164     0.181967    Uiso  ? Co
   Co38       1.0     0.662438     0.831219     0.486218    Uiso  ? Co
   Co39       1.0     0.345243     0.172622     0.515998    Uiso  ? Co
   Co40       1.0     0.829236     0.659814     0.515271    Uiso  ? Co
   Co41       1.0     0.829236     0.169423     0.515271    Uiso  ? Co
   Co42       1.0     0.329090     0.164545     0.819647    Uiso  ? Co
   Co43       1.0     0.011878     0.505939     0.849226    Uiso  ? Co
   Co44       1.0     0.496046     0.993221     0.848583    Uiso  ? Co
   Co45       1.0     0.496046     0.502825     0.848583    Uiso  ? Co
   Ni1        1.0     0.501805     0.498970     0.151579    Uiso  ? Ni
   Ni2        1.0     0.168475     0.832199     0.484995    Uiso  ? Ni
   Ni3        1.0     0.835257     0.165625     0.818292    Uiso  ? Ni
   Ni4        1.0     0.501805     0.002835     0.151579    Uiso  ? Ni
   Ni5        1.0     0.168475     0.336275     0.484995    Uiso  ? Ni
   Ni6        1.0     0.835257     0.669633     0.818292    Uiso  ? Ni
