
#======================================================================
# CRYSTAL DATA
#----------------------------------------------------------------------
data_VESTA_phase_1

_chemical_name_common                  'Sm6 Co51                              '
_cell_length_a                         8.372432
_cell_length_b                         8.347720
_cell_length_c                         12.068658
_cell_angle_alpha                      90.000000
_cell_angle_beta                       89.946327
_cell_angle_gamma                      119.902405
_cell_volume                           731.198197
_space_group_name_H-M_alt              'P 1'
_space_group_IT_number                 1

loop_
_space_group_symop_operation_xyz
   'x, y, z'

loop_
   _atom_site_label
   _atom_site_occupancy
   _atom_site_fract_x
   _atom_site_fract_y
   _atom_site_fract_z
   _atom_site_adp_type
   _atom_site_U_iso_or_equiv
   _atom_site_type_symbol
   Sm1        1.0     0.334257     0.667129     0.013156    Uiso  ? Sm
   Sm2        1.0     0.666773     0.333386    -0.009417    Uiso  ? Sm
   Sm3        1.0     0.331084     0.665542     0.322435    Uiso  ? Sm
   Sm4        1.0     0.002098     0.001049     0.346617    Uiso  ? Sm
   Sm5        1.0    -0.002157    -0.001078     0.656500    Uiso  ? Sm
   Sm6        1.0     0.668898     0.334448     0.679635    Uiso  ? Sm
   Co1        1.0    -0.000252    -0.000126     0.096637    Uiso  ? Co
   Co2        1.0     0.666866     0.333433     0.237836    Uiso  ? Co
   Co3        1.0     0.666064     0.333032     0.429974    Uiso  ? Co
   Co4        1.0     0.334638     0.667319     0.570717    Uiso  ? Co
   Co5        1.0     0.332712     0.666357     0.763554    Uiso  ? Co
   Co6        1.0     0.000521     0.000260     0.904228    Uiso  ? Co
   Co7        1.0     0.834069     0.166032     0.165656    Uiso  ? Co
   Co8        1.0     0.332456     0.166229     0.165579    Uiso  ? Co
   Co9        1.0     0.834069     0.668038     0.165656    Uiso  ? Co
   Co10       1.0     0.499664     0.500502     0.498881    Uiso  ? Co
   Co11       1.0    -0.001594     0.499203     0.498867    Uiso  ? Co
   Co12       1.0     0.499664    -0.000838     0.498881    Uiso  ? Co
   Co13       1.0     0.166526     0.332647     0.832195    Uiso  ? Co
   Co14       1.0     0.166526     0.833879     0.832195    Uiso  ? Co
   Co15       1.0     0.665155     0.832577     0.832685    Uiso  ? Co
   Co16       1.0     0.000559     0.714991    -0.000930    Uiso  ? Co
   Co17       1.0     0.000559     0.285567    -0.000930    Uiso  ? Co
   Co18       1.0     0.283991    -0.000933    -0.000225    Uiso  ? Co
   Co19       1.0     0.283991     0.284923    -0.000225    Uiso  ? Co
   Co20       1.0     0.714849     0.715023    -0.000837    Uiso  ? Co
   Co21       1.0     0.714849    -0.000175    -0.000837    Uiso  ? Co
   Co22       1.0     0.382640     0.333396     0.332473    Uiso  ? Co
   Co23       1.0     0.382640     0.049243     0.332473    Uiso  ? Co
   Co24       1.0     0.666807     0.046350     0.332748    Uiso  ? Co
   Co25       1.0     0.666807     0.620457     0.332748    Uiso  ? Co
   Co26       1.0     0.950054     0.332048     0.332508    Uiso  ? Co
   Co27       1.0     0.950054     0.618006     0.332508    Uiso  ? Co
   Co28       1.0     0.049310     0.666894     0.665550    Uiso  ? Co
   Co29       1.0     0.049310     0.382417     0.665550    Uiso  ? Co
   Co30       1.0     0.333523     0.954429     0.666034    Uiso  ? Co
   Co31       1.0     0.333523     0.379095     0.666034    Uiso  ? Co
   Co32       1.0     0.616016     0.665093     0.666616    Uiso  ? Co
   Co33       1.0     0.616016     0.950924     0.666616    Uiso  ? Co
   Co34       1.0     0.677584     0.838791     0.182913    Uiso  ? Co
   Co35       1.0     0.161408     0.322969     0.183149    Uiso  ? Co
   Co36       1.0     0.161408     0.838439     0.183149    Uiso  ? Co
   Co37       1.0     0.662342     0.831170     0.485989    Uiso  ? Co
   Co38       1.0     0.345074     0.172537     0.516310    Uiso  ? Co
   Co39       1.0     0.829126     0.659643     0.515220    Uiso  ? Co
   Co40       1.0     0.829126     0.169484     0.515220    Uiso  ? Co
   Co41       1.0     0.329073     0.164537     0.819806    Uiso  ? Co
   Co42       1.0     0.011363     0.505682     0.849564    Uiso  ? Co
   Co43       1.0     0.496166     0.993281     0.848757    Uiso  ? Co
   Co44       1.0     0.496166     0.502885     0.848757    Uiso  ? Co
   Ni1        1.0     0.501570     0.498810     0.151608    Uiso  ? Ni
   Ni2        1.0     0.168433     0.832060     0.484877    Uiso  ? Ni
   Ni3        1.0     0.835151     0.165555     0.818288    Uiso  ? Ni
   Ni4        1.0     0.501570     0.002760     0.151608    Uiso  ? Ni
   Ni5        1.0     0.168433     0.336372     0.484877    Uiso  ? Ni
   Ni6        1.0     0.835151     0.669597     0.818288    Uiso  ? Ni
   Ni7        1.0     0.997319     0.498659     0.151283    Uiso  ? Ni
