
#======================================================================
# CRYSTAL DATA
#----------------------------------------------------------------------
data_VESTA_phase_1

_chemical_name_common                  'Sm6 Co51                              '
_cell_length_a                         8.370545
_cell_length_b                         8.358579
_cell_length_c                         12.058225
_cell_angle_alpha                      90.000000
_cell_angle_beta                       89.971626
_cell_angle_gamma                      119.952721
_cell_volume                           730.982251
_space_group_name_H-M_alt              'P 1'
_space_group_IT_number                 1

loop_
_space_group_symop_operation_xyz
   'x, y, z'

loop_
   _atom_site_label
   _atom_site_occupancy
   _atom_site_fract_x
   _atom_site_fract_y
   _atom_site_fract_z
   _atom_site_adp_type
   _atom_site_U_iso_or_equiv
   _atom_site_type_symbol
   Sm1        1.0     0.333887     0.666944     0.013155    Uiso  ? Sm
   Sm2        1.0     0.666752     0.333376    -0.009340    Uiso  ? Sm
   Sm3        1.0     0.333379     0.666690     0.323316    Uiso  ? Sm
   Sm4        1.0     0.000377     0.000188     0.346962    Uiso  ? Sm
   Sm5        1.0    -0.002235    -0.001118     0.655966    Uiso  ? Sm
   Sm6        1.0     0.668349     0.334174     0.680061    Uiso  ? Sm
   Co1        1.0    -0.000082    -0.000041     0.097019    Uiso  ? Co
   Co2        1.0     0.666609     0.333304     0.237866    Uiso  ? Co
   Co3        1.0     0.666595     0.333297     0.430004    Uiso  ? Co
   Co4        1.0     0.333698     0.666849     0.570971    Uiso  ? Co
   Co5        1.0     0.332807     0.666404     0.763591    Uiso  ? Co
   Co6        1.0     0.000681     0.000340     0.904178    Uiso  ? Co
   Co7        1.0     0.834028     0.166035     0.165431    Uiso  ? Co
   Co8        1.0     0.332202     0.166102     0.165800    Uiso  ? Co
   Co9        1.0     0.834028     0.667994     0.165431    Uiso  ? Co
   Co10       1.0     0.500681     0.499356     0.498889    Uiso  ? Co
   Co11       1.0    -0.000980     0.499510     0.498547    Uiso  ? Co
   Co12       1.0     0.500681     0.001325     0.498889    Uiso  ? Co
   Co13       1.0     0.166413     0.332487     0.832117    Uiso  ? Co
   Co14       1.0     0.166413     0.833925     0.832117    Uiso  ? Co
   Co15       1.0     0.664791     0.832395     0.832323    Uiso  ? Co
   Co16       1.0     0.000583     0.715124    -0.000974    Uiso  ? Co
   Co17       1.0     0.000583     0.285459    -0.000974    Uiso  ? Co
   Co18       1.0     0.283921    -0.000869    -0.000142    Uiso  ? Co
   Co19       1.0     0.283921     0.284790    -0.000142    Uiso  ? Co
   Co20       1.0     0.714819     0.715209    -0.001045    Uiso  ? Co
   Co21       1.0     0.714819    -0.000390    -0.001045    Uiso  ? Co
   Co22       1.0     0.381763     0.332911     0.332585    Uiso  ? Co
   Co23       1.0     0.381763     0.048851     0.332585    Uiso  ? Co
   Co24       1.0     0.667250     0.048745     0.332409    Uiso  ? Co
   Co25       1.0     0.667250     0.618504     0.332409    Uiso  ? Co
   Co26       1.0     0.951146     0.332675     0.332300    Uiso  ? Co
   Co27       1.0     0.951146     0.618470     0.332300    Uiso  ? Co
   Co28       1.0     0.049360     0.666539     0.665610    Uiso  ? Co
   Co29       1.0     0.049360     0.382822     0.665610    Uiso  ? Co
   Co30       1.0     0.333492     0.953605     0.666038    Uiso  ? Co
   Co31       1.0     0.333492     0.379888     0.666038    Uiso  ? Co
   Co32       1.0     0.616527     0.665400     0.665885    Uiso  ? Co
   Co33       1.0     0.616527     0.951128     0.665885    Uiso  ? Co
   Co34       1.0     0.677035     0.838517     0.182998    Uiso  ? Co
   Co35       1.0     0.161556     0.323140     0.183324    Uiso  ? Co
   Co36       1.0     0.161556     0.838415     0.183324    Uiso  ? Co
   Co37       1.0     0.344056     0.172029     0.516538    Uiso  ? Co
   Co38       1.0     0.828051     0.656247     0.516433    Uiso  ? Co
   Co39       1.0     0.828051     0.171804     0.516433    Uiso  ? Co
   Co40       1.0     0.328928     0.164465     0.819632    Uiso  ? Co
   Co41       1.0     0.011306     0.505653     0.849802    Uiso  ? Co
   Co42       1.0     0.495996     0.993097     0.848776    Uiso  ? Co
   Co43       1.0     0.495996     0.502900     0.848776    Uiso  ? Co
   Ni1        1.0     0.501396     0.498765     0.151596    Uiso  ? Ni
   Ni2        1.0     0.168208     0.832023     0.484865    Uiso  ? Ni
   Ni3        1.0     0.835060     0.165367     0.818120    Uiso  ? Ni
   Ni4        1.0     0.501396     0.002631     0.151596    Uiso  ? Ni
   Ni5        1.0     0.168208     0.336184     0.484865    Uiso  ? Ni
   Ni6        1.0     0.835060     0.669694     0.818120    Uiso  ? Ni
   Ni7        1.0     0.997509     0.498755     0.151429    Uiso  ? Ni
   Ni8        1.0     0.663838     0.831918     0.484745    Uiso  ? Ni
