
#======================================================================
# CRYSTAL DATA
#----------------------------------------------------------------------
data_VESTA_phase_1

_chemical_name_common                  'Sm6 Co51                              '
_cell_length_a                         8.369525
_cell_length_b                         8.369525
_cell_length_c                         12.051705
_cell_angle_alpha                      90.000000
_cell_angle_beta                       90.000000
_cell_angle_gamma                      120.000000
_cell_volume                           731.106684
_space_group_name_H-M_alt              'P 1'
_space_group_IT_number                 1

loop_
_space_group_symop_operation_xyz
   'x, y, z'

loop_
   _atom_site_label
   _atom_site_occupancy
   _atom_site_fract_x
   _atom_site_fract_y
   _atom_site_fract_z
   _atom_site_adp_type
   _atom_site_U_iso_or_equiv
   _atom_site_type_symbol
   Sm1        1.0     0.333333     0.666667     0.013656    Uiso  ? Sm
   Sm2        1.0     0.666667     0.333333    -0.009848    Uiso  ? Sm
   Sm3        1.0     0.333333     0.666667     0.323361    Uiso  ? Sm
   Sm4        1.0     0.000000     0.000000     0.347007    Uiso  ? Sm
   Sm5        1.0     0.000000     0.000000     0.656892    Uiso  ? Sm
   Sm6        1.0     0.666667     0.333333     0.680369    Uiso  ? Sm
   Co1        1.0     0.000000     0.000000     0.097104    Uiso  ? Co
   Co2        1.0     0.666667     0.333333     0.237892    Uiso  ? Co
   Co3        1.0     0.666667     0.333333     0.430357    Uiso  ? Co
   Co4        1.0     0.333333     0.666667     0.570972    Uiso  ? Co
   Co5        1.0     0.333333     0.666667     0.763590    Uiso  ? Co
   Co6        1.0     0.000000     0.000000     0.904557    Uiso  ? Co
   Co7        1.0     0.834067     0.165933     0.165395    Uiso  ? Co
   Co8        1.0     0.331866     0.165933     0.165395    Uiso  ? Co
   Co9        1.0     0.834067     0.668134     0.165395    Uiso  ? Co
   Co10       1.0     0.500661     0.499339     0.498725    Uiso  ? Co
   Co11       1.0    -0.001322     0.499339     0.498725    Uiso  ? Co
   Co12       1.0     0.500661     0.001322     0.498725    Uiso  ? Co
   Co13       1.0     0.167301     0.334602     0.832024    Uiso  ? Co
   Co14       1.0     0.167301     0.832699     0.832024    Uiso  ? Co
   Co15       1.0     0.665398     0.832699     0.832024    Uiso  ? Co
   Co16       1.0     0.000668     0.715696    -0.000957    Uiso  ? Co
   Co17       1.0     0.000668     0.284972    -0.000957    Uiso  ? Co
   Co18       1.0     0.284304    -0.000668    -0.000957    Uiso  ? Co
   Co19       1.0     0.284304     0.284972    -0.000957    Uiso  ? Co
   Co20       1.0     0.715028     0.715696    -0.000957    Uiso  ? Co
   Co21       1.0     0.715028    -0.000668    -0.000957    Uiso  ? Co
   Co22       1.0     0.381684     0.332704     0.332359    Uiso  ? Co
   Co23       1.0     0.381684     0.048979     0.332359    Uiso  ? Co
   Co24       1.0     0.667296     0.048979     0.332359    Uiso  ? Co
   Co25       1.0     0.667296     0.618316     0.332359    Uiso  ? Co
   Co26       1.0     0.951021     0.332704     0.332359    Uiso  ? Co
   Co27       1.0     0.951021     0.618316     0.332359    Uiso  ? Co
   Co28       1.0     0.048349     0.666016     0.665692    Uiso  ? Co
   Co29       1.0     0.048349     0.382334     0.665692    Uiso  ? Co
   Co30       1.0     0.333984     0.951651     0.665692    Uiso  ? Co
   Co31       1.0     0.333984     0.382334     0.665692    Uiso  ? Co
   Co32       1.0     0.617666     0.666016     0.665692    Uiso  ? Co
   Co33       1.0     0.617666     0.951651     0.665692    Uiso  ? Co
   Co34       1.0     0.677040     0.838520     0.183284    Uiso  ? Co
   Co35       1.0     0.161480     0.322960     0.183284    Uiso  ? Co
   Co36       1.0     0.161480     0.838520     0.183284    Uiso  ? Co
   Co37       1.0     0.343681     0.171841     0.516679    Uiso  ? Co
   Co38       1.0     0.828159     0.656319     0.516679    Uiso  ? Co
   Co39       1.0     0.828159     0.171841     0.516679    Uiso  ? Co
   Co40       1.0     0.010395     0.505198     0.849951    Uiso  ? Co
   Co41       1.0     0.494802     0.989605     0.849951    Uiso  ? Co
   Co42       1.0     0.494802     0.505198     0.849951    Uiso  ? Co
   Ni1        1.0     0.501345     0.498655     0.151429    Uiso  ? Ni
   Ni2        1.0     0.168029     0.831971     0.484852    Uiso  ? Ni
   Ni3        1.0     0.834719     0.165281     0.818171    Uiso  ? Ni
   Ni4        1.0     0.501345     0.002691     0.151429    Uiso  ? Ni
   Ni5        1.0     0.168029     0.336058     0.484852    Uiso  ? Ni
   Ni6        1.0     0.834719     0.669438     0.818171    Uiso  ? Ni
   Ni7        1.0     0.997309     0.498655     0.151429    Uiso  ? Ni
   Ni8        1.0     0.663942     0.831971     0.484852    Uiso  ? Ni
   Ni9        1.0     0.330562     0.165281     0.818171    Uiso  ? Ni
