
#======================================================================
# CRYSTAL DATA
#----------------------------------------------------------------------
data_VESTA_phase_1

_chemical_name_common                  'Sm6 Co51                              '
_cell_length_a                         8.350553
_cell_length_b                         8.346107
_cell_length_c                         12.162597
_cell_angle_alpha                      89.948547
_cell_angle_beta                       90.001884
_cell_angle_gamma                      120.016739
_cell_volume                           733.977205
_space_group_name_H-M_alt              'P 1'
_space_group_IT_number                 1

loop_
_space_group_symop_operation_xyz
   'x, y, z'

loop_
   _atom_site_label
   _atom_site_occupancy
   _atom_site_fract_x
   _atom_site_fract_y
   _atom_site_fract_z
   _atom_site_adp_type
   _atom_site_U_iso_or_equiv
   _atom_site_type_symbol
   Sm1        1.0     0.333559     0.667334     0.010617    Uiso  ? Sm
   Sm2        1.0     0.666865     0.333367     0.988639    Uiso  ? Sm
   Sm3        1.0     0.333504     0.670600     0.322257    Uiso  ? Sm
   Sm4        1.0     0.996269     0.996057     0.344382    Uiso  ? Sm
   Sm5        1.0     0.999583     0.999335     0.656223    Uiso  ? Sm
   Sm6        1.0     0.666854     0.333295     0.677855    Uiso  ? Sm
   Co1        1.0     0.000184     0.999543     0.095343    Uiso  ? Co
   Co2        1.0     0.667761     0.332458     0.237507    Uiso  ? Co
   Co3        1.0     0.668937     0.334367     0.429062    Uiso  ? Co
   Co4        1.0     0.334181     0.667272     0.571225    Uiso  ? Co
   Co5        1.0     0.333113     0.666359     0.762945    Uiso  ? Co
   Co6        1.0     0.000031     0.000189     0.903807    Uiso  ? Co
   Co7        1.0     0.833050     0.167543     0.166671    Uiso  ? Co
   Co8        1.0     0.334691     0.165909     0.163988    Uiso  ? Co
   Co9        1.0     0.833409     0.666164     0.166553    Uiso  ? Co
   Co10       1.0     0.502183     0.500724     0.502632    Uiso  ? Co
   Co11       1.0     0.998609     0.499020     0.500016    Uiso  ? Co
   Co12       1.0     0.500776     0.000800     0.500099    Uiso  ? Co
   Co13       1.0     0.165553     0.333247     0.833386    Uiso  ? Co
   Co14       1.0     0.166329     0.833502     0.832731    Uiso  ? Co
   Co15       1.0     0.666260     0.833222     0.834020    Uiso  ? Co
   Co16       1.0     0.999835     0.713756     0.999564    Uiso  ? Co
   Co17       1.0     0.999614     0.286979     0.999985    Uiso  ? Co
   Co18       1.0     0.287118     0.999588     0.000109    Uiso  ? Co
   Co19       1.0     0.285950     0.285449     0.997805    Uiso  ? Co
   Co20       1.0     0.712610     0.712383     0.000598    Uiso  ? Co
   Co21       1.0     0.714099     0.000171     0.999741    Uiso  ? Co
   Co22       1.0     0.377987     0.037889     0.332439    Uiso  ? Co
   Co23       1.0     0.667084     0.047444     0.333132    Uiso  ? Co
   Co24       1.0     0.673393     0.628743     0.334212    Uiso  ? Co
   Co25       1.0     0.958127     0.333282     0.333391    Uiso  ? Co
   Co26       1.0     0.952917     0.619231     0.333537    Uiso  ? Co
   Co27       1.0     0.047389     0.666555     0.666950    Uiso  ? Co
   Co28       1.0     0.046196     0.379848     0.666706    Uiso  ? Co
   Co29       1.0     0.333571     0.954171     0.666059    Uiso  ? Co
   Co30       1.0     0.333805     0.381215     0.668839    Uiso  ? Co
   Co31       1.0     0.620704     0.667018     0.666595    Uiso  ? Co
   Co32       1.0     0.619341     0.952797     0.667103    Uiso  ? Co
   Co33       1.0     0.995501     0.498382     0.154365    Uiso  ? Co
   Co34       1.0     0.503425     0.005312     0.153073    Uiso  ? Co
   Co35       1.0     0.503784     0.499215     0.152888    Uiso  ? Co
   Co36       1.0     0.671137     0.836017     0.178696    Uiso  ? Co
   Co37       1.0     0.163280     0.329644     0.173163    Uiso  ? Co
   Co38       1.0     0.163957     0.835614     0.178615    Uiso  ? Co
   Co39       1.0     0.661654     0.831009     0.488009    Uiso  ? Co
   Co40       1.0     0.166939     0.337024     0.493399    Uiso  ? Co
   Co41       1.0     0.168631     0.830622     0.487925    Uiso  ? Co
   Co42       1.0     0.337703     0.167406     0.513825    Uiso  ? Co
   Co43       1.0     0.831557     0.661582     0.513627    Uiso  ? Co
   Co44       1.0     0.830482     0.168173     0.512486    Uiso  ? Co
   Co45       1.0     0.328626     0.164445     0.820648    Uiso  ? Co
   Co46       1.0     0.835195     0.671036     0.820917    Uiso  ? Co
   Co47       1.0     0.835093     0.163976     0.820214    Uiso  ? Co
   Co48       1.0     0.004538     0.502749     0.846442    Uiso  ? Co
   Co49       1.0     0.497409     0.995427     0.845705    Uiso  ? Co
   Co50       1.0     0.497406     0.502231     0.845962    Uiso  ? Co
   Zn1        1.0     0.372240     0.333309     0.333316    Uiso  ? Zn
