
#======================================================================
# CRYSTAL DATA
#----------------------------------------------------------------------
data_VESTA_phase_1

_chemical_name_common                  'Sm6 Co51                              '
_cell_length_a                         8.352378
_cell_length_b                         8.352378
_cell_length_c                         12.140640
_cell_angle_alpha                      90.036667
_cell_angle_beta                       89.963333
_cell_angle_gamma                      119.938583
_cell_volume                           733.940436
_space_group_name_H-M_alt              'P 1'
_space_group_IT_number                 1

loop_
_space_group_symop_operation_xyz
   'x, y, z'

loop_
   _atom_site_label
   _atom_site_occupancy
   _atom_site_fract_x
   _atom_site_fract_y
   _atom_site_fract_z
   _atom_site_adp_type
   _atom_site_U_iso_or_equiv
   _atom_site_type_symbol
   Sm1        1.0     0.331453     0.668547     0.008814    Uiso  ? Sm
   Sm2        1.0     0.667080     0.332920    -0.012343    Uiso  ? Sm
   Sm3        1.0     0.331944     0.668056     0.323604    Uiso  ? Sm
   Sm4        1.0     0.000476    -0.000476     0.345622    Uiso  ? Sm
   Sm5        1.0     0.000116    -0.000116     0.655704    Uiso  ? Sm
   Sm6        1.0     0.666622     0.333378     0.677257    Uiso  ? Sm
   Co1        1.0     0.000227    -0.000227     0.095463    Uiso  ? Co
   Co2        1.0     0.670910     0.329090     0.238486    Uiso  ? Co
   Co3        1.0     0.666272     0.333728     0.429580    Uiso  ? Co
   Co4        1.0     0.333219     0.666781     0.570806    Uiso  ? Co
   Co5        1.0     0.333337     0.666663     0.762556    Uiso  ? Co
   Co6        1.0    -0.000352     0.000352     0.903359    Uiso  ? Co
   Co7        1.0     0.834142     0.165858     0.166690    Uiso  ? Co
   Co8        1.0     0.329199     0.162129     0.167141    Uiso  ? Co
   Co9        1.0     0.837871     0.670801     0.167141    Uiso  ? Co
   Co10       1.0     0.499510     0.500490     0.500644    Uiso  ? Co
   Co11       1.0    -0.000639     0.499911     0.500194    Uiso  ? Co
   Co12       1.0     0.500089     0.000639     0.500194    Uiso  ? Co
   Co13       1.0     0.165840     0.333243     0.832903    Uiso  ? Co
   Co14       1.0     0.166779     0.833221     0.833018    Uiso  ? Co
   Co15       1.0     0.666757     0.834160     0.832903    Uiso  ? Co
   Co16       1.0     0.001450     0.712914    -0.000105    Uiso  ? Co
   Co17       1.0    -0.001132     0.287660     0.000022    Uiso  ? Co
   Co18       1.0     0.287086    -0.001450    -0.000105    Uiso  ? Co
   Co19       1.0     0.279373     0.279227    -0.001721    Uiso  ? Co
   Co20       1.0     0.720773     0.720627    -0.001721    Uiso  ? Co
   Co21       1.0     0.712340     0.001132     0.000022    Uiso  ? Co
   Co22       1.0     0.379475     0.331729     0.335125    Uiso  ? Co
   Co23       1.0     0.382254     0.047573     0.333209    Uiso  ? Co
   Co24       1.0     0.667221     0.046616     0.333854    Uiso  ? Co
   Co25       1.0     0.668271     0.620525     0.335125    Uiso  ? Co
   Co26       1.0     0.953384     0.332779     0.333854    Uiso  ? Co
   Co27       1.0     0.952427     0.617746     0.333209    Uiso  ? Co
   Co28       1.0     0.047571     0.666563     0.666625    Uiso  ? Co
   Co29       1.0     0.046805     0.380095     0.666329    Uiso  ? Co
   Co30       1.0     0.333437     0.952429     0.666625    Uiso  ? Co
   Co31       1.0     0.333524     0.380349     0.667058    Uiso  ? Co
   Co32       1.0     0.619651     0.666476     0.667058    Uiso  ? Co
   Co33       1.0     0.619905     0.953195     0.666329    Uiso  ? Co
   Co34       1.0     0.994748     0.496883     0.153628    Uiso  ? Co
   Co35       1.0     0.503117     0.005252     0.153628    Uiso  ? Co
   Co36       1.0     0.676380     0.841258     0.181302    Uiso  ? Co
   Co37       1.0     0.158742     0.323620     0.181302    Uiso  ? Co
   Co38       1.0     0.163444     0.836556     0.180390    Uiso  ? Co
   Co39       1.0     0.661584     0.830976     0.487469    Uiso  ? Co
   Co40       1.0     0.169024     0.338416     0.487469    Uiso  ? Co
   Co41       1.0     0.169026     0.830974     0.487300    Uiso  ? Co
   Co42       1.0     0.337476     0.169032     0.512320    Uiso  ? Co
   Co43       1.0     0.830968     0.662524     0.512320    Uiso  ? Co
   Co44       1.0     0.831066     0.168934     0.513295    Uiso  ? Co
   Co45       1.0     0.328844     0.164516     0.819822    Uiso  ? Co
   Co46       1.0     0.835484     0.671156     0.819822    Uiso  ? Co
   Co47       1.0     0.835328     0.164672     0.820393    Uiso  ? Co
   Co48       1.0     0.004262     0.502361     0.845509    Uiso  ? Co
   Co49       1.0     0.497639     0.995738     0.845509    Uiso  ? Co
   Co50       1.0     0.497399     0.502601     0.847160    Uiso  ? Co
   Zn1        1.0     0.500802     0.499198     0.150834    Uiso  ? Zn
