
#======================================================================
# CRYSTAL DATA
#----------------------------------------------------------------------
data_VESTA_phase_1

_chemical_name_common                  'Sm9 Co27                              '
_cell_length_a                         4.991426
_cell_length_b                         5.083201
_cell_length_c                         24.653595
_cell_angle_alpha                      90.195839
_cell_angle_beta                       90.000000
_cell_angle_gamma                      119.404533
_cell_volume                           544.934336
_space_group_name_H-M_alt              'P 1'
_space_group_IT_number                 1

loop_
_space_group_symop_operation_xyz
   'x, y, z'

loop_
   _atom_site_label
   _atom_site_occupancy
   _atom_site_fract_x
   _atom_site_fract_y
   _atom_site_fract_z
   _atom_site_adp_type
   _atom_site_U_iso_or_equiv
   _atom_site_type_symbol
   Sm1        1.0     0.000000     0.000000     -0.000000    Uiso  ? Sm
   Sm2        1.0     0.670731     0.341461     0.329332    Uiso  ? Sm
   Sm3        1.0     0.329269     0.658539     0.670668    Uiso  ? Sm
   Sm4        1.0     0.668622     0.337243     0.191825    Uiso  ? Sm
   Sm5        1.0     0.000668     0.001336     0.139096    Uiso  ? Sm
   Sm6        1.0     0.338015     0.676031     0.525984    Uiso  ? Sm
   Sm7        1.0     0.661985     0.323969     0.474016    Uiso  ? Sm
   Sm8        1.0    -0.000668    -0.001336     0.860904    Uiso  ? Sm
   Sm9        1.0     0.331378     0.662757     0.808175    Uiso  ? Sm
   Co1        1.0     0.335594     0.671189     0.165113    Uiso  ? Co
   Co2        1.0     0.000000     0.000000     0.500000    Uiso  ? Co
   Co3        1.0     0.664406     0.328811     0.834887    Uiso  ? Co
   Co4        1.0     0.360331     0.720661     0.331696    Uiso  ? Co
   Co5        1.0     0.327277     0.654554     0.000576    Uiso  ? Co
   Co6        1.0     0.019112     0.038225     0.670595    Uiso  ? Co
   Co7        1.0    -0.019112    -0.038225     0.329405    Uiso  ? Co
   Co8        1.0     0.672723     0.345446     0.999424    Uiso  ? Co
   Co9        1.0     0.639669     0.279339     0.668304    Uiso  ? Co
   Co10       1.0     0.660899     0.832044     0.250150    Uiso  ? Co
   Co11       1.0     0.167042     0.334084     0.254399    Uiso  ? Co
   Co12       1.0     0.171145     0.832044     0.250150    Uiso  ? Co
   Co13       1.0     0.001516     0.501068     0.080169    Uiso  ? Co
   Co14       1.0     0.500379     0.000758     0.078617    Uiso  ? Co
   Co15       1.0     0.499552     0.501068     0.080169    Uiso  ? Co
   Co16       1.0     0.323101     0.159321     0.586590    Uiso  ? Co
   Co17       1.0     0.836220     0.159321     0.586590    Uiso  ? Co
   Co18       1.0     0.676899     0.840679     0.413410    Uiso  ? Co
   Co19       1.0     0.163780     0.840679     0.413410    Uiso  ? Co
   Co20       1.0    -0.001516     0.498932     0.919831    Uiso  ? Co
   Co21       1.0     0.499621    -0.000758     0.921383    Uiso  ? Co
   Co22       1.0     0.500448     0.498932     0.919831    Uiso  ? Co
   Co23       1.0     0.339101     0.167956     0.749850    Uiso  ? Co
   Co24       1.0     0.832958     0.665916     0.745601    Uiso  ? Co
   Co25       1.0     0.828855     0.167956     0.749850    Uiso  ? Co
   Zn1        1.0     0.171561     0.343123     0.408397    Uiso  ? Zn
   Zn2        1.0     0.828439     0.656877     0.591604    Uiso  ? Zn
