
#======================================================================
# CRYSTAL DATA
#----------------------------------------------------------------------
data_VESTA_phase_1

_chemical_name_common                  'Sm6 Co51                              '
_cell_length_a                         8.355004
_cell_length_b                         8.355004
_cell_length_c                         12.133797
_cell_angle_alpha                      90.000000
_cell_angle_beta                       90.000000
_cell_angle_gamma                      120.000000
_cell_volume                           733.534766
_space_group_name_H-M_alt              'P 1'
_space_group_IT_number                 1

loop_
_space_group_symop_operation_xyz
   'x, y, z'

loop_
   _atom_site_label
   _atom_site_occupancy
   _atom_site_fract_x
   _atom_site_fract_y
   _atom_site_fract_z
   _atom_site_adp_type
   _atom_site_U_iso_or_equiv
   _atom_site_type_symbol
   Sm1        1.0     0.333333     0.666667     0.010527    Uiso  ? Sm
   Sm2        1.0     0.666667     0.333333    -0.013451    Uiso  ? Sm
   Sm3        1.0     0.333333     0.666667     0.322284    Uiso  ? Sm
   Sm4        1.0     0.000000     0.000000     0.344603    Uiso  ? Sm
   Sm5        1.0     0.000000     0.000000     0.655374    Uiso  ? Sm
   Sm6        1.0     0.666667     0.333333     0.677168    Uiso  ? Sm
   Co1        1.0     0.000000     0.000000     0.096097    Uiso  ? Co
   Co2        1.0     0.666667     0.333333     0.437532    Uiso  ? Co
   Co3        1.0     0.333333     0.666667     0.570436    Uiso  ? Co
   Co4        1.0     0.333333     0.666667     0.762471    Uiso  ? Co
   Co5        1.0     0.000000     0.000000     0.904103    Uiso  ? Co
   Co6        1.0     0.836267     0.163733     0.167299    Uiso  ? Co
   Co7        1.0     0.327464     0.163733     0.167299    Uiso  ? Co
   Co8        1.0     0.836267     0.672536     0.167299    Uiso  ? Co
   Co9        1.0     0.499738     0.500262     0.500420    Uiso  ? Co
   Co10       1.0     0.000524     0.500262     0.500420    Uiso  ? Co
   Co11       1.0     0.499738    -0.000524     0.500420    Uiso  ? Co
   Co12       1.0     0.166165     0.332329     0.833307    Uiso  ? Co
   Co13       1.0     0.166165     0.833835     0.833307    Uiso  ? Co
   Co14       1.0     0.667671     0.833835     0.833307    Uiso  ? Co
   Co15       1.0    -0.000212     0.713275    -0.000406    Uiso  ? Co
   Co16       1.0    -0.000212     0.286513    -0.000406    Uiso  ? Co
   Co17       1.0     0.286725     0.000212    -0.000406    Uiso  ? Co
   Co18       1.0     0.286725     0.286513    -0.000406    Uiso  ? Co
   Co19       1.0     0.713487     0.713275    -0.000406    Uiso  ? Co
   Co20       1.0     0.713487     0.000212    -0.000406    Uiso  ? Co
   Co21       1.0     0.379344     0.332811     0.334229    Uiso  ? Co
   Co22       1.0     0.379344     0.046531     0.334229    Uiso  ? Co
   Co23       1.0     0.667189     0.046531     0.334229    Uiso  ? Co
   Co24       1.0     0.667189     0.620656     0.334229    Uiso  ? Co
   Co25       1.0     0.953469     0.332811     0.334229    Uiso  ? Co
   Co26       1.0     0.953469     0.620656     0.334229    Uiso  ? Co
   Co27       1.0     0.047643     0.666913     0.666701    Uiso  ? Co
   Co28       1.0     0.047643     0.380731     0.666701    Uiso  ? Co
   Co29       1.0     0.333087     0.952357     0.666701    Uiso  ? Co
   Co30       1.0     0.333087     0.380731     0.666701    Uiso  ? Co
   Co31       1.0     0.619269     0.666913     0.666701    Uiso  ? Co
   Co32       1.0     0.619269     0.952357     0.666701    Uiso  ? Co
   Co33       1.0     0.000651     0.500325     0.153645    Uiso  ? Co
   Co34       1.0     0.499675    -0.000651     0.153645    Uiso  ? Co
   Co35       1.0     0.499675     0.500325     0.153645    Uiso  ? Co
   Co36       1.0     0.669723     0.834861     0.178193    Uiso  ? Co
   Co37       1.0     0.165139     0.330277     0.178193    Uiso  ? Co
   Co38       1.0     0.165139     0.834861     0.178193    Uiso  ? Co
   Co39       1.0     0.661835     0.830917     0.485729    Uiso  ? Co
   Co40       1.0     0.169083     0.338165     0.485729    Uiso  ? Co
   Co41       1.0     0.169083     0.830917     0.485729    Uiso  ? Co
   Co42       1.0     0.337463     0.168732     0.513697    Uiso  ? Co
   Co43       1.0     0.831268     0.662537     0.513697    Uiso  ? Co
   Co44       1.0     0.831268     0.168732     0.513697    Uiso  ? Co
   Co45       1.0     0.328716     0.164358     0.819757    Uiso  ? Co
   Co46       1.0     0.835642     0.671284     0.819757    Uiso  ? Co
   Co47       1.0     0.835642     0.164358     0.819757    Uiso  ? Co
   Co48       1.0     0.004841     0.502421     0.845884    Uiso  ? Co
   Co49       1.0     0.497579     0.995158     0.845884    Uiso  ? Co
   Co50       1.0     0.497579     0.502421     0.845884    Uiso  ? Co
   Zn1        1.0     0.666667     0.333333     0.235910    Uiso  ? Zn
