
#======================================================================
# CRYSTAL DATA
#----------------------------------------------------------------------
data_VESTA_phase_1

_chemical_name_common                  'Sm6 Co51                              '
_cell_length_a                         8.342470
_cell_length_b                         8.342470
_cell_length_c                         12.161654
_cell_angle_alpha                      89.878960
_cell_angle_beta                       90.121040
_cell_angle_gamma                      119.899315
_cell_volume                           733.754906
_space_group_name_H-M_alt              'P 1'
_space_group_IT_number                 1

loop_
_space_group_symop_operation_xyz
   'x, y, z'

loop_
   _atom_site_label
   _atom_site_occupancy
   _atom_site_fract_x
   _atom_site_fract_y
   _atom_site_fract_z
   _atom_site_adp_type
   _atom_site_U_iso_or_equiv
   _atom_site_type_symbol
   Sm1        1.0     0.333751     0.666249     0.009605    Uiso  ? Sm
   Sm2        1.0     0.665954     0.334046    -0.011477    Uiso  ? Sm
   Sm3        1.0     0.332925     0.667075     0.323850    Uiso  ? Sm
   Sm4        1.0     0.000722    -0.000722     0.344473    Uiso  ? Sm
   Sm5        1.0     0.000260    -0.000260     0.655993    Uiso  ? Sm
   Sm6        1.0     0.666434     0.333566     0.677496    Uiso  ? Sm
   Co1        1.0     0.004458    -0.004458     0.094834    Uiso  ? Co
   Co2        1.0     0.662223     0.337777     0.238612    Uiso  ? Co
   Co3        1.0     0.667145     0.332855     0.429403    Uiso  ? Co
   Co4        1.0     0.333358     0.666642     0.571085    Uiso  ? Co
   Co5        1.0     0.333310     0.666690     0.762167    Uiso  ? Co
   Co6        1.0    -0.000382     0.000382     0.904058    Uiso  ? Co
   Co7        1.0     0.333360     0.166711     0.166619    Uiso  ? Co
   Co8        1.0     0.833289     0.666640     0.166619    Uiso  ? Co
   Co9        1.0     0.000353     0.500783     0.500197    Uiso  ? Co
   Co10       1.0     0.499217    -0.000353     0.500197    Uiso  ? Co
   Co11       1.0     0.499897     0.500103     0.500109    Uiso  ? Co
   Co12       1.0     0.167319     0.333600     0.833221    Uiso  ? Co
   Co13       1.0     0.166759     0.833241     0.833297    Uiso  ? Co
   Co14       1.0     0.666400     0.832681     0.833221    Uiso  ? Co
   Co15       1.0     0.001079     0.712821    -0.000027    Uiso  ? Co
   Co16       1.0     0.001438     0.287662    -0.003210    Uiso  ? Co
   Co17       1.0     0.287179    -0.001079    -0.000027    Uiso  ? Co
   Co18       1.0     0.285849     0.284828    -0.000040    Uiso  ? Co
   Co19       1.0     0.715172     0.714151    -0.000040    Uiso  ? Co
   Co20       1.0     0.712338    -0.001438    -0.003210    Uiso  ? Co
   Co21       1.0     0.379649     0.334429     0.333345    Uiso  ? Co
   Co22       1.0     0.380891     0.048616     0.333367    Uiso  ? Co
   Co23       1.0     0.665218     0.045608     0.336582    Uiso  ? Co
   Co24       1.0     0.665571     0.620351     0.333345    Uiso  ? Co
   Co25       1.0     0.954392     0.334782     0.336582    Uiso  ? Co
   Co26       1.0     0.951384     0.619109     0.333367    Uiso  ? Co
   Co27       1.0     0.047249     0.666926     0.666971    Uiso  ? Co
   Co28       1.0     0.046912     0.380203     0.666661    Uiso  ? Co
   Co29       1.0     0.333074     0.952751     0.666971    Uiso  ? Co
   Co30       1.0     0.333485     0.380548     0.666346    Uiso  ? Co
   Co31       1.0     0.619452     0.666515     0.666346    Uiso  ? Co
   Co32       1.0     0.619797     0.953088     0.666661    Uiso  ? Co
   Co33       1.0     0.001567     0.503180     0.155010    Uiso  ? Co
   Co34       1.0     0.496820    -0.001567     0.155010    Uiso  ? Co
   Co35       1.0     0.501560     0.498440     0.152981    Uiso  ? Co
   Co36       1.0     0.665051     0.830240     0.178408    Uiso  ? Co
   Co37       1.0     0.169760     0.334949     0.178408    Uiso  ? Co
   Co38       1.0     0.165172     0.834828     0.180261    Uiso  ? Co
   Co39       1.0     0.662234     0.831315     0.487631    Uiso  ? Co
   Co40       1.0     0.168685     0.337766     0.487631    Uiso  ? Co
   Co41       1.0     0.168523     0.831477     0.487564    Uiso  ? Co
   Co42       1.0     0.338095     0.169158     0.512794    Uiso  ? Co
   Co43       1.0     0.830842     0.661905     0.512794    Uiso  ? Co
   Co44       1.0     0.830964     0.169036     0.514491    Uiso  ? Co
   Co45       1.0     0.328621     0.164259     0.820625    Uiso  ? Co
   Co46       1.0     0.835741     0.671379     0.820625    Uiso  ? Co
   Co47       1.0     0.835771     0.164229     0.818932    Uiso  ? Co
   Co48       1.0     0.004587     0.502135     0.845524    Uiso  ? Co
   Co49       1.0     0.497865     0.995413     0.845524    Uiso  ? Co
   Co50       1.0     0.497993     0.502007     0.845542    Uiso  ? Co
   Zn1        1.0     0.833271     0.166729     0.166678    Uiso  ? Zn
