
#======================================================================
# CRYSTAL DATA
#----------------------------------------------------------------------
data_VESTA_phase_1

_chemical_name_common                  'Sm6 Co51                              '
_cell_length_a                         8.306854
_cell_length_b                         8.307002
_cell_length_c                         12.105742
_cell_angle_alpha                      90.000793
_cell_angle_beta                       89.998711
_cell_angle_gamma                      119.999535
_cell_volume                           723.444147
_space_group_name_H-M_alt              'P 1'
_space_group_IT_number                 1

loop_
_space_group_symop_operation_xyz
   'x, y, z'

loop_
   _atom_site_label
   _atom_site_occupancy
   _atom_site_fract_x
   _atom_site_fract_y
   _atom_site_fract_z
   _atom_site_adp_type
   _atom_site_U_iso_or_equiv
   _atom_site_type_symbol
   Sm1        1.0     0.333335     0.666663     0.013849    Uiso  ? Sm
   Sm2        1.0     0.666646     0.333333     0.989396    Uiso  ? Sm
   Sm3        1.0     0.000007    -0.000003     0.345062    Uiso  ? Sm
   Sm4        1.0     0.000011    -0.000001     0.655661    Uiso  ? Sm
   Sm5        1.0     0.666649     0.333332     0.677546    Uiso  ? Sm
   Co1        1.0    -0.000009    -0.000004     0.098553    Uiso  ? Co
   Co2        1.0     0.666658     0.333337     0.237618    Uiso  ? Co
   Co3        1.0     0.666649     0.333335     0.429024    Uiso  ? Co
   Co4        1.0     0.333334     0.666661     0.564892    Uiso  ? Co
   Co5        1.0     0.333327     0.666662     0.759763    Uiso  ? Co
   Co6        1.0     0.000001    -0.000000     0.905357    Uiso  ? Co
   Co7        1.0     0.833789     0.166206     0.167215    Uiso  ? Co
   Co8        1.0     0.332394     0.166190     0.167215    Uiso  ? Co
   Co9        1.0     0.833786     0.667571     0.167219    Uiso  ? Co
   Co10       1.0     0.500895     0.499109     0.500039    Uiso  ? Co
   Co11       1.0     0.998211     0.499095     0.500035    Uiso  ? Co
   Co12       1.0     0.500912     0.001824     0.500040    Uiso  ? Co
   Co13       1.0     0.166863     0.333713     0.833618    Uiso  ? Co
   Co14       1.0     0.166860     0.833135     0.833624    Uiso  ? Co
   Co15       1.0     0.666286     0.833149     0.833621    Uiso  ? Co
   Co16       1.0     0.000664     0.713580     0.001239    Uiso  ? Co
   Co17       1.0     0.000658     0.287096     0.001234    Uiso  ? Co
   Co18       1.0     0.286406     0.999339     0.001242    Uiso  ? Co
   Co19       1.0     0.286412     0.287057     0.001237    Uiso  ? Co
   Co20       1.0     0.712922     0.713587     0.001243    Uiso  ? Co
   Co21       1.0     0.712916     0.999341     0.001241    Uiso  ? Co
   Co22       1.0     0.377329     0.335938     0.333196    Uiso  ? Co
   Co23       1.0     0.377337     0.041405     0.333196    Uiso  ? Co
   Co24       1.0     0.664052     0.041397     0.333196    Uiso  ? Co
   Co25       1.0     0.664058     0.622658     0.333202    Uiso  ? Co
   Co26       1.0     0.958616     0.335932     0.333194    Uiso  ? Co
   Co27       1.0     0.958620     0.622671     0.333196    Uiso  ? Co
   Co28       1.0     0.046675     0.667177     0.666304    Uiso  ? Co
   Co29       1.0     0.046670     0.379491     0.666295    Uiso  ? Co
   Co30       1.0     0.332822     0.953344     0.666297    Uiso  ? Co
   Co31       1.0     0.332816     0.379489     0.666294    Uiso  ? Co
   Co32       1.0     0.620500     0.667172     0.666291    Uiso  ? Co
   Co33       1.0     0.620492     0.953322     0.666291    Uiso  ? Co
   Co34       1.0     0.995559     0.497772     0.154596    Uiso  ? Co
   Co35       1.0     0.502225     0.004447     0.154605    Uiso  ? Co
   Co36       1.0     0.502213     0.497772     0.154612    Uiso  ? Co
   Co37       1.0     0.663715     0.831859     0.184476    Uiso  ? Co
   Co38       1.0     0.168159     0.336299     0.184483    Uiso  ? Co
   Co39       1.0     0.168167     0.831844     0.184475    Uiso  ? Co
   Co40       1.0     0.656521     0.828267     0.483275    Uiso  ? Co
   Co41       1.0     0.171728     0.343457     0.483285    Uiso  ? Co
   Co42       1.0     0.171734     0.828273     0.483293    Uiso  ? Co
   Co43       1.0     0.336583     0.168297     0.512494    Uiso  ? Co
   Co44       1.0     0.831690     0.663407     0.512481    Uiso  ? Co
   Co45       1.0     0.831690     0.168287     0.512479    Uiso  ? Co
   Co46       1.0     0.328854     0.164425     0.821127    Uiso  ? Co
   Co47       1.0     0.835600     0.671162     0.821139    Uiso  ? Co
   Co48       1.0     0.835585     0.164429     0.821142    Uiso  ? Co
   Co49       1.0     0.004746     0.502369     0.845864    Uiso  ? Co
   Co50       1.0     0.497659     0.995290     0.845842    Uiso  ? Co
   Co51       1.0     0.497654     0.502364     0.845836    Uiso  ? Co
   Zn1        1.0     0.333348     0.666679     0.310762    Uiso  ? Zn
