
#======================================================================
# CRYSTAL DATA
#----------------------------------------------------------------------
data_VESTA_phase_1

_chemical_name_common                  'Sm6 Co51                              '
_cell_length_a                         8.388608
_cell_length_b                         8.399075
_cell_length_c                         12.338993
_cell_angle_alpha                      89.921257
_cell_angle_beta                       90.000000
_cell_angle_gamma                      119.958786
_cell_volume                           753.201808
_space_group_name_H-M_alt              'P 1'
_space_group_IT_number                 1

loop_
_space_group_symop_operation_xyz
   'x, y, z'

loop_
   _atom_site_label
   _atom_site_occupancy
   _atom_site_fract_x
   _atom_site_fract_y
   _atom_site_fract_z
   _atom_site_adp_type
   _atom_site_U_iso_or_equiv
   _atom_site_type_symbol
   Sm1        1.0     0.334231     0.668462     0.013169    Uiso  ? Sm
   Sm2        1.0     0.665769     0.331538    -0.013169    Uiso  ? Sm
   Sm3        1.0     0.336740     0.673480     0.318521    Uiso  ? Sm
   Sm4        1.0    -0.002893    -0.005786     0.346452    Uiso  ? Sm
   Sm5        1.0     0.002893     0.005786     0.653548    Uiso  ? Sm
   Sm6        1.0     0.663260     0.326520     0.681479    Uiso  ? Sm
   Co1        1.0     0.831865     0.165699     0.164358    Uiso  ? Co
   Co2        1.0     0.333833     0.165699     0.164358    Uiso  ? Co
   Co3        1.0     0.832433     0.664867     0.166743    Uiso  ? Co
   Co4        1.0     0.500000     0.500000     0.500000    Uiso  ? Co
   Co5        1.0     0.000000     0.500000     0.500000    Uiso  ? Co
   Co6        1.0     0.500000     0.000000     0.500000    Uiso  ? Co
   Co7        1.0     0.167567     0.335132     0.833257    Uiso  ? Co
   Co8        1.0     0.168135     0.834301     0.835642    Uiso  ? Co
   Co9        1.0     0.666167     0.834301     0.835642    Uiso  ? Co
   Co10       1.0     0.000331     0.713476     0.001388    Uiso  ? Co
   Co11       1.0    -0.000331     0.286524    -0.001388    Uiso  ? Co
   Co12       1.0     0.285002     -0.000000     0.000000    Uiso  ? Co
   Co13       1.0     0.286855     0.286524    -0.001388    Uiso  ? Co
   Co14       1.0     0.713145     0.713476     0.001388    Uiso  ? Co
   Co15       1.0     0.714998     0.000000     -0.000000    Uiso  ? Co
   Co16       1.0     0.380431     0.044767     0.332060    Uiso  ? Co
   Co17       1.0     0.664337     0.044767     0.332060    Uiso  ? Co
   Co18       1.0     0.667348     0.620349     0.331996    Uiso  ? Co
   Co19       1.0     0.953002     0.620349     0.331996    Uiso  ? Co
   Co20       1.0     0.046998     0.379651     0.668004    Uiso  ? Co
   Co21       1.0     0.335662     0.955233     0.667940    Uiso  ? Co
   Co22       1.0     0.332652     0.379651     0.668004    Uiso  ? Co
   Co23       1.0     0.619569     0.955233     0.667940    Uiso  ? Co
   Co24       1.0    -0.000401     0.501087     0.152066    Uiso  ? Co
   Co25       1.0     0.499863    -0.000273     0.151729    Uiso  ? Co
   Co26       1.0     0.501487     0.501087     0.152066    Uiso  ? Co
   Co27       1.0     0.665961     0.833478     0.179142    Uiso  ? Co
   Co28       1.0     0.166692     0.333383     0.169322    Uiso  ? Co
   Co29       1.0     0.167518     0.833478     0.179142    Uiso  ? Co
   Co30       1.0     0.666516     0.834936     0.486757    Uiso  ? Co
   Co31       1.0     0.166765     0.333528     0.497103    Uiso  ? Co
   Co32       1.0     0.168421     0.834936     0.486757    Uiso  ? Co
   Co33       1.0     0.333484     0.165064     0.513243    Uiso  ? Co
   Co34       1.0     0.833236     0.666472     0.502897    Uiso  ? Co
   Co35       1.0     0.831579     0.165064     0.513243    Uiso  ? Co
   Co36       1.0     0.334039     0.166522     0.820858    Uiso  ? Co
   Co37       1.0     0.833308     0.666617     0.830678    Uiso  ? Co
   Co38       1.0     0.832482     0.166522     0.820858    Uiso  ? Co
   Co39       1.0     0.000401     0.498913     0.847934    Uiso  ? Co
   Co40       1.0     0.500137     0.000273     0.848271    Uiso  ? Co
   Co41       1.0     0.498513     0.498913     0.847934    Uiso  ? Co
   Mn1        1.0     0.666289     0.332577     0.229714    Uiso  ? Mn
   Mn2        1.0     0.335137     0.670275     0.564010    Uiso  ? Mn
   Mn3        1.0     0.002215     0.004429     0.896688    Uiso  ? Mn
   Mn4        1.0     0.664863     0.329725     0.435990    Uiso  ? Mn
   Mn5        1.0     0.333711     0.667423     0.770286    Uiso  ? Mn
   Mn6        1.0    -0.002215    -0.004429     0.103312    Uiso  ? Mn
   Mn7        1.0     0.965709     0.333126     0.332748    Uiso  ? Mn
   Mn8        1.0     0.367418     0.333126     0.332748    Uiso  ? Mn
   Mn9        1.0     0.632582     0.666874     0.667252    Uiso  ? Mn
   Mn10       1.0     0.034291     0.666874     0.667252    Uiso  ? Mn
