
#======================================================================
# CRYSTAL DATA
#----------------------------------------------------------------------
data_VESTA_phase_1

_chemical_name_common                  'Sm6 Co51                              '
_cell_length_a                         8.389690
_cell_length_b                         8.405342
_cell_length_c                         12.367347
_cell_angle_alpha                      89.965805
_cell_angle_beta                       90.000000
_cell_angle_gamma                      119.938423
_cell_volume                           755.748922
_space_group_name_H-M_alt              'P 1'
_space_group_IT_number                 1

loop_
_space_group_symop_operation_xyz
   'x, y, z'

loop_
   _atom_site_label
   _atom_site_occupancy
   _atom_site_fract_x
   _atom_site_fract_y
   _atom_site_fract_z
   _atom_site_adp_type
   _atom_site_U_iso_or_equiv
   _atom_site_type_symbol
   Sm1        1.0     0.332268     0.664609     0.013204    Uiso  ? Sm
   Sm2        1.0     0.667659     0.335390    -0.013204    Uiso  ? Sm
   Sm3        1.0     0.336595     0.671659     0.319452    Uiso  ? Sm
   Sm4        1.0    -0.002680    -0.004857     0.346448    Uiso  ? Sm
   Sm5        1.0     0.002177     0.004857     0.653552    Uiso  ? Sm
   Sm6        1.0     0.664937     0.328341     0.680548    Uiso  ? Sm
   Co1        1.0     0.831769     0.165148     0.164248    Uiso  ? Co
   Co2        1.0     0.333596     0.166929     0.166573    Uiso  ? Co
   Co3        1.0     0.832910     0.665747     0.166714    Uiso  ? Co
   Co4        1.0     0.499931     0.499945     0.499906    Uiso  ? Co
   Co5        1.0    -0.000014     0.500055     0.500094    Uiso  ? Co
   Co6        1.0     0.500364     0.000000     0.500000    Uiso  ? Co
   Co7        1.0     0.167164     0.334253     0.833286    Uiso  ? Co
   Co8        1.0     0.166668     0.833071     0.833427    Uiso  ? Co
   Co9        1.0     0.666622     0.834852     0.835752    Uiso  ? Co
   Co10       1.0    -0.003719     0.710071     0.000669    Uiso  ? Co
   Co11       1.0    -0.002950     0.284211    -0.001594    Uiso  ? Co
   Co12       1.0     0.286210     0.289929    -0.000669    Uiso  ? Co
   Co13       1.0     0.712839     0.715789     0.001594    Uiso  ? Co
   Co14       1.0     0.706615     0.000000     -0.000000    Uiso  ? Co
   Co15       1.0     0.379703     0.044027     0.333546    Uiso  ? Co
   Co16       1.0     0.664925     0.044775     0.332755    Uiso  ? Co
   Co17       1.0     0.668180     0.621162     0.332343    Uiso  ? Co
   Co18       1.0     0.954274     0.622136     0.332364    Uiso  ? Co
   Co19       1.0     0.047018     0.378838     0.667657    Uiso  ? Co
   Co20       1.0     0.335675     0.955973     0.666454    Uiso  ? Co
   Co21       1.0     0.332137     0.377864     0.667636    Uiso  ? Co
   Co22       1.0     0.620148     0.955225     0.667245    Uiso  ? Co
   Co23       1.0     0.000015     0.501191     0.152660    Uiso  ? Co
   Co24       1.0     0.501285    -0.000345     0.158792    Uiso  ? Co
   Co25       1.0     0.501500     0.500607     0.152612    Uiso  ? Co
   Co26       1.0     0.666484     0.832787     0.179669    Uiso  ? Co
   Co27       1.0     0.165436     0.332824     0.169557    Uiso  ? Co
   Co28       1.0     0.166230     0.832446     0.179668    Uiso  ? Co
   Co29       1.0     0.666791     0.834853     0.486645    Uiso  ? Co
   Co30       1.0     0.166821     0.333437     0.496945    Uiso  ? Co
   Co31       1.0     0.168249     0.834478     0.486557    Uiso  ? Co
   Co32       1.0     0.333769     0.165522     0.513443    Uiso  ? Co
   Co33       1.0     0.833383     0.666563     0.503055    Uiso  ? Co
   Co34       1.0     0.831937     0.165147     0.513355    Uiso  ? Co
   Co35       1.0     0.333783     0.167554     0.820332    Uiso  ? Co
   Co36       1.0     0.832610     0.667176     0.830443    Uiso  ? Co
   Co37       1.0     0.833696     0.167213     0.820331    Uiso  ? Co
   Co38       1.0     0.000893     0.499393     0.847388    Uiso  ? Co
   Co39       1.0     0.501631     0.000345     0.841208    Uiso  ? Co
   Co40       1.0     0.498824     0.498809     0.847340    Uiso  ? Co
   Mn1        1.0     0.668555     0.335326     0.230256    Uiso  ? Mn
   Mn2        1.0     0.335684     0.670736     0.563933    Uiso  ? Mn
   Mn3        1.0     0.001600     0.004411     0.896984    Uiso  ? Mn
   Mn4        1.0     0.664949     0.329264     0.436067    Uiso  ? Mn
   Mn5        1.0     0.333227     0.664674     0.769744    Uiso  ? Mn
   Mn6        1.0    -0.002811    -0.004411     0.103016    Uiso  ? Mn
   Mn7        1.0     0.965082     0.333318     0.332985    Uiso  ? Mn
   Mn8        1.0     0.368613     0.333019     0.333080    Uiso  ? Mn
   Mn9        1.0     0.631762     0.666682     0.667015    Uiso  ? Mn
   Mn10       1.0     0.035593     0.666981     0.666920    Uiso  ? Mn
   Mn11       1.0     0.293385    -0.000000     -0.000000    Uiso  ? Mn
