
#======================================================================
# CRYSTAL DATA
#----------------------------------------------------------------------
data_VESTA_phase_1

_chemical_name_common                  'Sm6 Co51                              '
_cell_length_a                         8.387701
_cell_length_b                         8.412707
_cell_length_c                         12.389375
_cell_angle_alpha                      90.000351
_cell_angle_beta                       90.000000
_cell_angle_gamma                      119.901726
_cell_volume                           757.858217
_space_group_name_H-M_alt              'P 1'
_space_group_IT_number                 1

loop_
_space_group_symop_operation_xyz
   'x, y, z'

loop_
   _atom_site_label
   _atom_site_occupancy
   _atom_site_fract_x
   _atom_site_fract_y
   _atom_site_fract_z
   _atom_site_adp_type
   _atom_site_U_iso_or_equiv
   _atom_site_type_symbol
   Sm1        1.0     0.331109     0.662219     0.013158    Uiso  ? Sm
   Sm2        1.0     0.668891     0.337781    -0.013158    Uiso  ? Sm
   Sm3        1.0     0.335600     0.671201     0.320224    Uiso  ? Sm
   Sm4        1.0    -0.002238    -0.004476     0.346528    Uiso  ? Sm
   Sm5        1.0     0.002238     0.004476     0.653472    Uiso  ? Sm
   Sm6        1.0     0.664400     0.328799     0.679776    Uiso  ? Sm
   Co1        1.0     0.833311     0.166576     0.166818    Uiso  ? Co
   Co2        1.0     0.333264     0.166576     0.166818    Uiso  ? Co
   Co3        1.0     0.833328     0.666657     0.166798    Uiso  ? Co
   Co4        1.0     0.500000     0.500000     0.500000    Uiso  ? Co
   Co5        1.0     0.000000     0.500000     0.500000    Uiso  ? Co
   Co6        1.0     0.500000     0.000000     0.500000    Uiso  ? Co
   Co7        1.0     0.166672     0.333343     0.833202    Uiso  ? Co
   Co8        1.0     0.166689     0.833424     0.833182    Uiso  ? Co
   Co9        1.0     0.666736     0.833424     0.833182    Uiso  ? Co
   Co10       1.0    -0.001667     0.711222     0.000735    Uiso  ? Co
   Co11       1.0     0.001667     0.288778    -0.000735    Uiso  ? Co
   Co12       1.0     0.287111     0.288778    -0.000735    Uiso  ? Co
   Co13       1.0     0.712889     0.711222     0.000735    Uiso  ? Co
   Co14       1.0     0.379356     0.044426     0.334172    Uiso  ? Co
   Co15       1.0     0.665070     0.044426     0.334172    Uiso  ? Co
   Co16       1.0     0.668320     0.622273     0.332640    Uiso  ? Co
   Co17       1.0     0.953954     0.622273     0.332640    Uiso  ? Co
   Co18       1.0     0.046046     0.377727     0.667360    Uiso  ? Co
   Co19       1.0     0.334930     0.955574     0.665827    Uiso  ? Co
   Co20       1.0     0.331680     0.377727     0.667360    Uiso  ? Co
   Co21       1.0     0.620644     0.955574     0.665827    Uiso  ? Co
   Co22       1.0    -0.000035     0.501036     0.153122    Uiso  ? Co
   Co23       1.0     0.499986    -0.000027     0.163829    Uiso  ? Co
   Co24       1.0     0.501071     0.501036     0.153122    Uiso  ? Co
   Co25       1.0     0.666592     0.831965     0.180115    Uiso  ? Co
   Co26       1.0     0.166658     0.333314     0.169786    Uiso  ? Co
   Co27       1.0     0.165375     0.831965     0.180115    Uiso  ? Co
   Co28       1.0     0.666628     0.834396     0.486563    Uiso  ? Co
   Co29       1.0     0.166722     0.333443     0.496895    Uiso  ? Co
   Co30       1.0     0.167769     0.834396     0.486563    Uiso  ? Co
   Co31       1.0     0.333372     0.165604     0.513437    Uiso  ? Co
   Co32       1.0     0.833278     0.666557     0.503105    Uiso  ? Co
   Co33       1.0     0.832231     0.165604     0.513437    Uiso  ? Co
   Co34       1.0     0.333408     0.168035     0.819885    Uiso  ? Co
   Co35       1.0     0.833342     0.666686     0.830214    Uiso  ? Co
   Co36       1.0     0.834625     0.168035     0.819885    Uiso  ? Co
   Co37       1.0     0.000035     0.498964     0.846878    Uiso  ? Co
   Co38       1.0     0.500014     0.000027     0.836171    Uiso  ? Co
   Co39       1.0     0.498929     0.498964     0.846878    Uiso  ? Co
   Mn1        1.0     0.668800     0.337600     0.230548    Uiso  ? Mn
   Mn2        1.0     0.335413     0.670828     0.563945    Uiso  ? Mn
   Mn3        1.0     0.002093     0.004186     0.897208    Uiso  ? Mn
   Mn4        1.0     0.664587     0.329172     0.436055    Uiso  ? Mn
   Mn5        1.0     0.331200     0.662400     0.769452    Uiso  ? Mn
   Mn6        1.0    -0.002093    -0.004186     0.102792    Uiso  ? Mn
   Mn7        1.0     0.964667     0.333376     0.333332    Uiso  ? Mn
   Mn8        1.0     0.368710     0.333376     0.333332    Uiso  ? Mn
   Mn9        1.0     0.631290     0.666624     0.666668    Uiso  ? Mn
   Mn10       1.0     0.035333     0.666624     0.666668    Uiso  ? Mn
   Mn11       1.0     0.298039    -0.000000     0.000000    Uiso  ? Mn
   Mn12       1.0     0.701961     0.000000     -0.000000    Uiso  ? Mn
