
#======================================================================
# CRYSTAL DATA
#----------------------------------------------------------------------
data_VESTA_phase_1

_chemical_name_common                  'Sm6 Co51                              '
_cell_length_a                         8.394256
_cell_length_b                         8.434838
_cell_length_c                         12.411277
_cell_angle_alpha                      89.955620
_cell_angle_beta                       89.955849
_cell_angle_gamma                      120.031090
_cell_volume                           760.798041
_space_group_name_H-M_alt              'P 1'
_space_group_IT_number                 1

loop_
_space_group_symop_operation_xyz
   'x, y, z'

loop_
   _atom_site_label
   _atom_site_occupancy
   _atom_site_fract_x
   _atom_site_fract_y
   _atom_site_fract_z
   _atom_site_adp_type
   _atom_site_U_iso_or_equiv
   _atom_site_type_symbol
   Sm1        1.0     0.330766     0.661500     0.013207    Uiso  ? Sm
   Sm2        1.0     0.668630     0.337960    -0.013151    Uiso  ? Sm
   Sm3        1.0     0.337757     0.668379     0.320242    Uiso  ? Sm
   Sm4        1.0    -0.004161    -0.002958     0.346678    Uiso  ? Sm
   Sm5        1.0     0.003000     0.005936     0.654048    Uiso  ? Sm
   Sm6        1.0     0.664259     0.328553     0.679611    Uiso  ? Sm
   Co1        1.0     0.832155     0.166653     0.166378    Uiso  ? Co
   Co2        1.0     0.334774     0.166643     0.166340    Uiso  ? Co
   Co3        1.0     0.831328     0.666247     0.163570    Uiso  ? Co
   Co4        1.0     0.500786     0.499672     0.499843    Uiso  ? Co
   Co5        1.0    -0.000370     0.499980     0.500407    Uiso  ? Co
   Co6        1.0     0.500225     0.000884     0.500176    Uiso  ? Co
   Co7        1.0     0.166533     0.333323     0.833213    Uiso  ? Co
   Co8        1.0     0.167331     0.833813     0.833321    Uiso  ? Co
   Co9        1.0     0.666645     0.833663     0.832994    Uiso  ? Co
   Co10       1.0    -0.001622     0.712056    -0.000466    Uiso  ? Co
   Co11       1.0     0.001453     0.289310    -0.000969    Uiso  ? Co
   Co12       1.0     0.286100     0.287605    -0.000858    Uiso  ? Co
   Co13       1.0     0.712175     0.711406     0.000093    Uiso  ? Co
   Co14       1.0     0.372210     0.036712     0.334744    Uiso  ? Co
   Co15       1.0     0.662914     0.043860     0.334363    Uiso  ? Co
   Co16       1.0     0.665679     0.620819     0.332025    Uiso  ? Co
   Co17       1.0     0.046286     0.378424     0.666946    Uiso  ? Co
   Co18       1.0     0.335041     0.955578     0.666273    Uiso  ? Co
   Co19       1.0     0.332183     0.378960     0.667510    Uiso  ? Co
   Co20       1.0     0.620410     0.955345     0.665942    Uiso  ? Co
   Co21       1.0     0.997484     0.498393     0.154149    Uiso  ? Co
   Co22       1.0     0.500265     0.000154     0.164323    Uiso  ? Co
   Co23       1.0     0.500090     0.499939     0.152791    Uiso  ? Co
   Co24       1.0     0.666536     0.831989     0.179135    Uiso  ? Co
   Co25       1.0     0.166602     0.332419     0.169761    Uiso  ? Co
   Co26       1.0     0.167452     0.834380     0.175083    Uiso  ? Co
   Co27       1.0     0.666747     0.834463     0.487213    Uiso  ? Co
   Co28       1.0     0.167156     0.333786     0.497128    Uiso  ? Co
   Co29       1.0     0.168135     0.835867     0.491837    Uiso  ? Co
   Co30       1.0     0.335301     0.167501     0.513314    Uiso  ? Co
   Co31       1.0     0.834301     0.668523     0.505350    Uiso  ? Co
   Co32       1.0     0.831618     0.164712     0.513814    Uiso  ? Co
   Co33       1.0     0.333888     0.168620     0.819718    Uiso  ? Co
   Co34       1.0     0.833290     0.667078     0.830135    Uiso  ? Co
   Co35       1.0     0.834423     0.168020     0.819700    Uiso  ? Co
   Co36       1.0     0.000087     0.498480     0.847132    Uiso  ? Co
   Co37       1.0     0.500284     0.000243     0.836219    Uiso  ? Co
   Co38       1.0     0.498908     0.498904     0.846838    Uiso  ? Co
   Mn1        1.0     0.668354     0.337511     0.230843    Uiso  ? Mn
   Mn2        1.0     0.336493     0.670540     0.564543    Uiso  ? Mn
   Mn3        1.0     0.002109     0.004043     0.896931    Uiso  ? Mn
   Mn4        1.0     0.666890     0.330773     0.435431    Uiso  ? Mn
   Mn5        1.0     0.331581     0.662363     0.769883    Uiso  ? Mn
   Mn6        1.0    -0.002123    -0.002012     0.102348    Uiso  ? Mn
   Mn7        1.0     0.963212     0.327320     0.334169    Uiso  ? Mn
   Mn8        1.0     0.368860     0.330253     0.333344    Uiso  ? Mn
   Mn9        1.0     0.632269     0.667038     0.667006    Uiso  ? Mn
   Mn10       1.0     0.035215     0.666419     0.668888    Uiso  ? Mn
   Mn11       1.0     0.298662     0.000180    -0.000608    Uiso  ? Mn
   Mn12       1.0     0.701688     0.000072    -0.000353    Uiso  ? Mn
   Mn13       1.0     0.961737     0.631707     0.331452    Uiso  ? Mn
