
#======================================================================
# CRYSTAL DATA
#----------------------------------------------------------------------
data_VESTA_phase_1

_chemical_name_common                  'Sm6 Co51                              '
_cell_length_a                         8.399447
_cell_length_b                         8.455431
_cell_length_c                         12.430251
_cell_angle_alpha                      89.934395
_cell_angle_beta                       89.887054
_cell_angle_gamma                      120.103790
_cell_volume                           763.729689
_space_group_name_H-M_alt              'P 1'
_space_group_IT_number                 1

loop_
_space_group_symop_operation_xyz
   'x, y, z'

loop_
   _atom_site_label
   _atom_site_occupancy
   _atom_site_fract_x
   _atom_site_fract_y
   _atom_site_fract_z
   _atom_site_adp_type
   _atom_site_U_iso_or_equiv
   _atom_site_type_symbol
   Sm1        1.0     0.330273     0.660423     0.012613    Uiso  ? Sm
   Sm2        1.0     0.668466     0.338405    -0.012894    Uiso  ? Sm
   Sm3        1.0     0.338140     0.667381     0.319735    Uiso  ? Sm
   Sm4        1.0    -0.004870    -0.000787     0.346980    Uiso  ? Sm
   Sm5        1.0     0.003030     0.006169     0.654010    Uiso  ? Sm
   Sm6        1.0     0.664807     0.328265     0.679609    Uiso  ? Sm
   Co1        1.0     0.831320     0.166675     0.166677    Uiso  ? Co
   Co2        1.0     0.334145     0.166738     0.166173    Uiso  ? Co
   Co3        1.0     0.831040     0.665903     0.163357    Uiso  ? Co
   Co4        1.0     0.501930     0.499992     0.500030    Uiso  ? Co
   Co5        1.0    -0.000662     0.499981     0.500491    Uiso  ? Co
   Co6        1.0     0.502378     0.000850     0.503376    Uiso  ? Co
   Co7        1.0     0.166702     0.333333     0.833237    Uiso  ? Co
   Co8        1.0     0.166697     0.833372     0.833227    Uiso  ? Co
   Co9        1.0     0.666708     0.833377     0.833285    Uiso  ? Co
   Co10       1.0    -0.001558     0.711439    -0.000641    Uiso  ? Co
   Co11       1.0     0.000863     0.288715    -0.001009    Uiso  ? Co
   Co12       1.0     0.285358     0.286603    -0.000490    Uiso  ? Co
   Co13       1.0     0.712930     0.712137     0.000175    Uiso  ? Co
   Co14       1.0     0.666172     0.044006     0.334895    Uiso  ? Co
   Co15       1.0     0.667100     0.622680     0.331905    Uiso  ? Co
   Co16       1.0     0.047839     0.379908     0.667155    Uiso  ? Co
   Co17       1.0     0.334849     0.955368     0.667208    Uiso  ? Co
   Co18       1.0     0.332426     0.377743     0.667574    Uiso  ? Co
   Co19       1.0     0.620535     0.954691     0.666573    Uiso  ? Co
   Co20       1.0     0.996131     0.497031     0.154447    Uiso  ? Co
   Co21       1.0     0.499465    -0.001501     0.161437    Uiso  ? Co
   Co22       1.0     0.500600     0.501079     0.152633    Uiso  ? Co
   Co23       1.0     0.666036     0.832031     0.178803    Uiso  ? Co
   Co24       1.0     0.166176     0.332340     0.169424    Uiso  ? Co
   Co25       1.0     0.167075     0.833508     0.170986    Uiso  ? Co
   Co26       1.0     0.667250     0.834714     0.487957    Uiso  ? Co
   Co27       1.0     0.167214     0.334330     0.497175    Uiso  ? Co
   Co28       1.0     0.166201     0.833061     0.495633    Uiso  ? Co
   Co29       1.0     0.337150     0.169571     0.512042    Uiso  ? Co
   Co30       1.0     0.833850     0.668155     0.505261    Uiso  ? Co
   Co31       1.0     0.832884     0.165788     0.514147    Uiso  ? Co
   Co32       1.0     0.333563     0.168825     0.819435    Uiso  ? Co
   Co33       1.0     0.833028     0.666833     0.830280    Uiso  ? Co
   Co34       1.0     0.834400     0.167891     0.819893    Uiso  ? Co
   Co35       1.0    -0.000253     0.497933     0.847247    Uiso  ? Co
   Co36       1.0     0.500341    -0.000044     0.836378    Uiso  ? Co
   Co37       1.0     0.499049     0.498854     0.846874    Uiso  ? Co
   Mn1        1.0     0.666312     0.335923     0.231385    Uiso  ? Mn
   Mn2        1.0     0.336846     0.668870     0.564748    Uiso  ? Mn
   Mn3        1.0     0.001660     0.003979     0.896675    Uiso  ? Mn
   Mn4        1.0     0.667103     0.330745     0.435330    Uiso  ? Mn
   Mn5        1.0     0.331626     0.662578     0.769984    Uiso  ? Mn
   Mn6        1.0    -0.003455    -0.002131     0.101999    Uiso  ? Mn
   Mn7        1.0     0.963090     0.329155     0.334102    Uiso  ? Mn
   Mn8        1.0     0.370224     0.337448     0.332522    Uiso  ? Mn
   Mn9        1.0     0.632255     0.666634     0.667342    Uiso  ? Mn
   Mn10       1.0     0.034413     0.666068     0.669383    Uiso  ? Mn
   Mn11       1.0     0.298886     0.000485    -0.002771    Uiso  ? Mn
   Mn12       1.0     0.701039    -0.000051    -0.000645    Uiso  ? Mn
   Mn13       1.0     0.964712     0.634957     0.330916    Uiso  ? Mn
   Mn14       1.0     0.368512     0.031580     0.335728    Uiso  ? Mn
