
#======================================================================
# CRYSTAL DATA
#----------------------------------------------------------------------
data_VESTA_phase_1

_chemical_name_common                  'Sm6 Co51                              '
_cell_length_a                         8.407460
_cell_length_b                         8.475962
_cell_length_c                         12.452257
_cell_angle_alpha                      89.881920
_cell_angle_beta                       89.878792
_cell_angle_gamma                      120.217255
_cell_volume                           766.785300
_space_group_name_H-M_alt              'P 1'
_space_group_IT_number                 1

loop_
_space_group_symop_operation_xyz
   'x, y, z'

loop_
   _atom_site_label
   _atom_site_occupancy
   _atom_site_fract_x
   _atom_site_fract_y
   _atom_site_fract_z
   _atom_site_adp_type
   _atom_site_U_iso_or_equiv
   _atom_site_type_symbol
   Sm1        1.0     0.330311     0.660492     0.012343    Uiso  ? Sm
   Sm2        1.0     0.669054     0.339370    -0.012311    Uiso  ? Sm
   Sm3        1.0     0.338124     0.667942     0.319712    Uiso  ? Sm
   Sm4        1.0    -0.004136    -0.000799     0.346999    Uiso  ? Sm
   Sm5        1.0     0.004356     0.003046     0.654012    Uiso  ? Sm
   Sm6        1.0     0.662712     0.329352     0.679760    Uiso  ? Sm
   Co1        1.0     0.832238     0.166994     0.166778    Uiso  ? Co
   Co2        1.0     0.334295     0.167094     0.166165    Uiso  ? Co
   Co3        1.0     0.830966     0.665652     0.163234    Uiso  ? Co
   Co4        1.0     0.500745     0.499887     0.499857    Uiso  ? Co
   Co5        1.0    -0.000036     0.499891     0.500465    Uiso  ? Co
   Co6        1.0     0.500071     0.000084     0.500102    Uiso  ? Co
   Co7        1.0     0.166832     0.334307     0.833451    Uiso  ? Co
   Co8        1.0     0.167433     0.833282     0.833106    Uiso  ? Co
   Co9        1.0     0.666024     0.833331     0.833522    Uiso  ? Co
   Co10       1.0    -0.000939     0.712919    -0.000548    Uiso  ? Co
   Co11       1.0     0.000856     0.288507    -0.000721    Uiso  ? Co
   Co12       1.0     0.285247     0.286615    -0.000285    Uiso  ? Co
   Co13       1.0     0.712912     0.712425    -0.000450    Uiso  ? Co
   Co14       1.0     0.666924     0.044581     0.333622    Uiso  ? Co
   Co15       1.0     0.667474     0.623984     0.331749    Uiso  ? Co
   Co16       1.0     0.040816     0.372094     0.667615    Uiso  ? Co
   Co17       1.0     0.331803     0.953725     0.666574    Uiso  ? Co
   Co18       1.0     0.329865     0.376380     0.667815    Uiso  ? Co
   Co19       1.0     0.996711     0.497722     0.154433    Uiso  ? Co
   Co20       1.0     0.499916    -0.000945     0.161420    Uiso  ? Co
   Co21       1.0     0.500478     0.501098     0.152570    Uiso  ? Co
   Co22       1.0     0.666570     0.831275     0.178824    Uiso  ? Co
   Co23       1.0     0.166486     0.332774     0.169375    Uiso  ? Co
   Co24       1.0     0.167243     0.833676     0.170964    Uiso  ? Co
   Co25       1.0     0.665146     0.832385     0.488688    Uiso  ? Co
   Co26       1.0     0.167394     0.334296     0.497476    Uiso  ? Co
   Co27       1.0     0.165215     0.831562     0.495505    Uiso  ? Co
   Co28       1.0     0.336657     0.168943     0.511337    Uiso  ? Co
   Co29       1.0     0.833508     0.667261     0.505597    Uiso  ? Co
   Co30       1.0     0.834609     0.168260     0.508766    Uiso  ? Co
   Co31       1.0     0.333221     0.169057     0.820303    Uiso  ? Co
   Co32       1.0     0.833325     0.666914     0.830608    Uiso  ? Co
   Co33       1.0     0.834432     0.169053     0.824777    Uiso  ? Co
   Co34       1.0     0.001795     0.499808     0.847341    Uiso  ? Co
   Co35       1.0     0.500849     0.001575     0.838532    Uiso  ? Co
   Co36       1.0     0.498512     0.497973     0.847078    Uiso  ? Co
   Mn1        1.0     0.666853     0.336239     0.231228    Uiso  ? Mn
   Mn2        1.0     0.335771     0.667748     0.564878    Uiso  ? Mn
   Mn3        1.0     0.002401     0.003628     0.897160    Uiso  ? Mn
   Mn4        1.0     0.666769     0.333083     0.434935    Uiso  ? Mn
   Mn5        1.0     0.333554     0.663945     0.769245    Uiso  ? Mn
   Mn6        1.0    -0.002929    -0.002307     0.102341    Uiso  ? Mn
   Mn7        1.0     0.963539     0.330012     0.333449    Uiso  ? Mn
   Mn8        1.0     0.370600     0.337931     0.332375    Uiso  ? Mn
   Mn9        1.0     0.630378     0.660749     0.668180    Uiso  ? Mn
   Mn10       1.0     0.034372     0.662753     0.669854    Uiso  ? Mn
   Mn11       1.0     0.299607     0.001004    -0.002310    Uiso  ? Mn
   Mn12       1.0     0.701230    -0.000488     0.001413    Uiso  ? Mn
   Mn13       1.0     0.964941     0.635369     0.330912    Uiso  ? Mn
   Mn14       1.0     0.369486     0.033123     0.334937    Uiso  ? Mn
   Mn15       1.0     0.627411     0.963369     0.665237    Uiso  ? Mn
