
#======================================================================
# CRYSTAL DATA
#----------------------------------------------------------------------
data_VESTA_phase_1

_chemical_name_common                  'Sm6 Co51                              '
_cell_length_a                         8.410035
_cell_length_b                         8.492193
_cell_length_c                         12.462762
_cell_angle_alpha                      89.955269
_cell_angle_beta                       89.791077
_cell_angle_gamma                      120.300896
_cell_volume                           768.480631
_space_group_name_H-M_alt              'P 1'
_space_group_IT_number                 1

loop_
_space_group_symop_operation_xyz
   'x, y, z'

loop_
   _atom_site_label
   _atom_site_occupancy
   _atom_site_fract_x
   _atom_site_fract_y
   _atom_site_fract_z
   _atom_site_adp_type
   _atom_site_U_iso_or_equiv
   _atom_site_type_symbol
   Sm1        1.0     0.330607     0.660331     0.012069    Uiso  ? Sm
   Sm2        1.0     0.669392     0.339665    -0.012066    Uiso  ? Sm
   Sm3        1.0     0.338010     0.668343     0.319903    Uiso  ? Sm
   Sm4        1.0    -0.004918    -0.001408     0.346427    Uiso  ? Sm
   Sm5        1.0     0.004912     0.001404     0.653570    Uiso  ? Sm
   Sm6        1.0     0.661996     0.331660     0.680096    Uiso  ? Sm
   Co1        1.0     0.831749     0.166423     0.166622    Uiso  ? Co
   Co2        1.0     0.334250     0.166954     0.166621    Uiso  ? Co
   Co3        1.0     0.831108     0.665944     0.163515    Uiso  ? Co
   Co4        1.0     0.500001     0.499999     0.500001    Uiso  ? Co
   Co5        1.0    -0.000003     0.499998     0.500003    Uiso  ? Co
   Co6        1.0     0.499999    -0.000000     0.500002    Uiso  ? Co
   Co7        1.0     0.168897     0.334055     0.836489    Uiso  ? Co
   Co8        1.0     0.168253     0.833580     0.833377    Uiso  ? Co
   Co9        1.0     0.665747     0.833043     0.833376    Uiso  ? Co
   Co10       1.0    -0.000808     0.712015    -0.000393    Uiso  ? Co
   Co11       1.0     0.000812     0.287987     0.000395    Uiso  ? Co
   Co12       1.0     0.286298     0.286694     0.000210    Uiso  ? Co
   Co13       1.0     0.713700     0.713307    -0.000207    Uiso  ? Co
   Co14       1.0     0.666444     0.044994     0.333294    Uiso  ? Co
   Co15       1.0     0.666998     0.623651     0.331717    Uiso  ? Co
   Co16       1.0     0.333553     0.955012     0.666707    Uiso  ? Co
   Co17       1.0     0.333004     0.376350     0.668282    Uiso  ? Co
   Co18       1.0     0.996423     0.498231     0.154019    Uiso  ? Co
   Co19       1.0     0.499364    -0.001467     0.161505    Uiso  ? Co
   Co20       1.0     0.500428     0.501050     0.152812    Uiso  ? Co
   Co21       1.0     0.666374     0.830996     0.178571    Uiso  ? Co
   Co22       1.0     0.166730     0.332802     0.169523    Uiso  ? Co
   Co23       1.0     0.167111     0.833569     0.171302    Uiso  ? Co
   Co24       1.0     0.663611     0.830904     0.488814    Uiso  ? Co
   Co25       1.0     0.166681     0.332975     0.494841    Uiso  ? Co
   Co26       1.0     0.165852     0.833142     0.495022    Uiso  ? Co
   Co27       1.0     0.336386     0.169093     0.511188    Uiso  ? Co
   Co28       1.0     0.833313     0.667021     0.505161    Uiso  ? Co
   Co29       1.0     0.834143     0.166853     0.504981    Uiso  ? Co
   Co30       1.0     0.333625     0.169003     0.821426    Uiso  ? Co
   Co31       1.0     0.833272     0.667198     0.830473    Uiso  ? Co
   Co32       1.0     0.832891     0.166434     0.828695    Uiso  ? Co
   Co33       1.0     0.003582     0.501770     0.845981    Uiso  ? Co
   Co34       1.0     0.500637     0.001469     0.838496    Uiso  ? Co
   Co35       1.0     0.499571     0.498951     0.847189    Uiso  ? Co
   Mn1        1.0     0.666481     0.335942     0.231163    Uiso  ? Mn
   Mn2        1.0     0.333920     0.666590     0.565189    Uiso  ? Mn
   Mn3        1.0     0.002389     0.001717     0.897501    Uiso  ? Mn
   Mn4        1.0     0.666077     0.333407     0.434816    Uiso  ? Mn
   Mn5        1.0     0.333519     0.664058     0.768833    Uiso  ? Mn
   Mn6        1.0    -0.002389    -0.001716     0.102495    Uiso  ? Mn
   Mn7        1.0     0.963446     0.330884     0.331228    Uiso  ? Mn
   Mn8        1.0     0.370322     0.337752     0.332204    Uiso  ? Mn
   Mn9        1.0     0.629681     0.662250     0.667794    Uiso  ? Mn
   Mn10       1.0     0.036557     0.669116     0.668769    Uiso  ? Mn
   Mn11       1.0     0.299759     0.000922    -0.001872    Uiso  ? Mn
   Mn12       1.0     0.700241    -0.000919     0.001873    Uiso  ? Mn
   Mn13       1.0     0.964468     0.635000     0.331119    Uiso  ? Mn
   Mn14       1.0     0.369083     0.033272     0.335135    Uiso  ? Mn
   Mn15       1.0     0.630918     0.966728     0.664864    Uiso  ? Mn
   Mn16       1.0     0.035529     0.364998     0.668880    Uiso  ? Mn
