
#======================================================================
# CRYSTAL DATA
#----------------------------------------------------------------------
data_VESTA_phase_1

_chemical_name_common                  'Sm6 Co51                              '
_cell_length_a                         8.412158
_cell_length_b                         8.513304
_cell_length_c                         12.492527
_cell_angle_alpha                      89.944878
_cell_angle_beta                       89.725616
_cell_angle_gamma                      120.390877
_cell_volume                           771.709907
_space_group_name_H-M_alt              'P 1'
_space_group_IT_number                 1

loop_
_space_group_symop_operation_xyz
   'x, y, z'

loop_
   _atom_site_label
   _atom_site_occupancy
   _atom_site_fract_x
   _atom_site_fract_y
   _atom_site_fract_z
   _atom_site_adp_type
   _atom_site_U_iso_or_equiv
   _atom_site_type_symbol
   Sm1        1.0     0.328273     0.661472     0.012244    Uiso  ? Sm
   Sm2        1.0     0.671254     0.337003    -0.012372    Uiso  ? Sm
   Sm3        1.0     0.338856     0.669331     0.320473    Uiso  ? Sm
   Sm4        1.0    -0.005348    -0.001842     0.346400    Uiso  ? Sm
   Sm5        1.0     0.005433     0.002270     0.653833    Uiso  ? Sm
   Sm6        1.0     0.661996     0.331315     0.679876    Uiso  ? Sm
   Co1        1.0     0.832376     0.166198     0.166659    Uiso  ? Co
   Co2        1.0     0.333684     0.166892     0.166971    Uiso  ? Co
   Co3        1.0     0.831287     0.666428     0.163431    Uiso  ? Co
   Co4        1.0     0.500644     0.500384     0.500286    Uiso  ? Co
   Co5        1.0     0.000046     0.500287     0.499900    Uiso  ? Co
   Co6        1.0     0.499901    -0.000086     0.499748    Uiso  ? Co
   Co7        1.0     0.166600     0.333423     0.833473    Uiso  ? Co
   Co8        1.0     0.167595     0.833642     0.833233    Uiso  ? Co
   Co9        1.0     0.666632     0.833159     0.833519    Uiso  ? Co
   Co10       1.0    -0.003368     0.711501    -0.000542    Uiso  ? Co
   Co11       1.0    -0.001885     0.286661    -0.000130    Uiso  ? Co
   Co12       1.0     0.706429     0.705503     0.000345    Uiso  ? Co
   Co13       1.0     0.666730     0.046302     0.333263    Uiso  ? Co
   Co14       1.0     0.667171     0.623051     0.332095    Uiso  ? Co
   Co15       1.0     0.333901     0.955907     0.666550    Uiso  ? Co
   Co16       1.0     0.333737     0.377655     0.667125    Uiso  ? Co
   Co17       1.0     0.995839     0.497583     0.154397    Uiso  ? Co
   Co18       1.0     0.499286    -0.001090     0.162107    Uiso  ? Co
   Co19       1.0     0.500936     0.502400     0.157649    Uiso  ? Co
   Co20       1.0     0.668299     0.832836     0.178827    Uiso  ? Co
   Co21       1.0     0.167345     0.333401     0.171524    Uiso  ? Co
   Co22       1.0     0.166065     0.832308     0.171392    Uiso  ? Co
   Co23       1.0     0.664014     0.831313     0.488985    Uiso  ? Co
   Co24       1.0     0.166810     0.333471     0.495042    Uiso  ? Co
   Co25       1.0     0.165940     0.832885     0.494880    Uiso  ? Co
   Co26       1.0     0.336667     0.168482     0.511363    Uiso  ? Co
   Co27       1.0     0.833817     0.667214     0.504987    Uiso  ? Co
   Co28       1.0     0.834107     0.167030     0.504686    Uiso  ? Co
   Co29       1.0     0.331406     0.166475     0.822212    Uiso  ? Co
   Co30       1.0     0.833434     0.667497     0.831008    Uiso  ? Co
   Co31       1.0     0.831973     0.164801     0.828855    Uiso  ? Co
   Co32       1.0     0.003246     0.501347     0.844862    Uiso  ? Co
   Co33       1.0     0.500746     0.000772     0.838721    Uiso  ? Co
   Co34       1.0     0.500923     0.501648     0.841710    Uiso  ? Co
   Mn1        1.0     0.666858     0.335274     0.231461    Uiso  ? Mn
   Mn2        1.0     0.334155     0.666855     0.565073    Uiso  ? Mn
   Mn3        1.0     0.001785     0.001034     0.898114    Uiso  ? Mn
   Mn4        1.0     0.666173     0.333235     0.434755    Uiso  ? Mn
   Mn5        1.0     0.333492     0.666323     0.768359    Uiso  ? Mn
   Mn6        1.0    -0.000773    -0.000646     0.102127    Uiso  ? Mn
   Mn7        1.0     0.964970     0.331472     0.331548    Uiso  ? Mn
   Mn8        1.0     0.369720     0.336988     0.334449    Uiso  ? Mn
   Mn9        1.0     0.631135     0.663313     0.667155    Uiso  ? Mn
   Mn10       1.0     0.036024     0.669414     0.668585    Uiso  ? Mn
   Mn11       1.0     0.298319    -0.004532    -0.000960    Uiso  ? Mn
   Mn12       1.0     0.699845    -0.004108     0.002600    Uiso  ? Mn
   Mn13       1.0     0.965011     0.635209     0.330840    Uiso  ? Mn
   Mn14       1.0     0.368348     0.032893     0.334761    Uiso  ? Mn
   Mn15       1.0     0.631686     0.967534     0.664724    Uiso  ? Mn
   Mn16       1.0     0.035514     0.365814     0.668124    Uiso  ? Mn
   Mn17       1.0     0.294944     0.297097    -0.001298    Uiso  ? Mn
