
#======================================================================
# CRYSTAL DATA
#----------------------------------------------------------------------
data_VESTA_phase_1

_chemical_name_common                  'Sm6 Co51                              '
_cell_length_a                         8.414887
_cell_length_b                         8.531133
_cell_length_c                         12.482239
_cell_angle_alpha                      90.000008
_cell_angle_beta                       89.737915
_cell_angle_gamma                      120.458099
_cell_volume                           772.411431
_space_group_name_H-M_alt              'P 1'
_space_group_IT_number                 1

loop_
_space_group_symop_operation_xyz
   'x, y, z'

loop_
   _atom_site_label
   _atom_site_occupancy
   _atom_site_fract_x
   _atom_site_fract_y
   _atom_site_fract_z
   _atom_site_adp_type
   _atom_site_U_iso_or_equiv
   _atom_site_type_symbol
   Sm1        1.0     0.328298     0.664150     0.012828    Uiso  ? Sm
   Sm2        1.0     0.671700     0.335848    -0.012827    Uiso  ? Sm
   Sm3        1.0     0.338386     0.669193     0.320519    Uiso  ? Sm
   Sm4        1.0    -0.005019    -0.002511     0.346181    Uiso  ? Sm
   Sm5        1.0     0.005021     0.002512     0.653817    Uiso  ? Sm
   Sm6        1.0     0.661613     0.330807     0.679480    Uiso  ? Sm
   Co1        1.0     0.833255     0.166657     0.166605    Uiso  ? Co
   Co2        1.0     0.333327     0.166664     0.166638    Uiso  ? Co
   Co3        1.0     0.833253     0.666597     0.166607    Uiso  ? Co
   Co4        1.0     0.500002     0.500002     0.500000    Uiso  ? Co
   Co5        1.0     0.000001     0.500000     0.500000    Uiso  ? Co
   Co6        1.0     0.500001     0.000000     0.500002    Uiso  ? Co
   Co7        1.0     0.166745     0.333403     0.833397    Uiso  ? Co
   Co8        1.0     0.166748     0.833345     0.833397    Uiso  ? Co
   Co9        1.0     0.666673     0.833333     0.833366    Uiso  ? Co
   Co10       1.0     0.000001     0.711371    -0.000000    Uiso  ? Co
   Co11       1.0    -0.000000     0.288628     0.000000    Uiso  ? Co
   Co12       1.0     0.666700     0.044677     0.333305    Uiso  ? Co
   Co13       1.0     0.666702     0.622026     0.333302    Uiso  ? Co
   Co14       1.0     0.333301     0.955323     0.666695    Uiso  ? Co
   Co15       1.0     0.333299     0.377975     0.666695    Uiso  ? Co
   Co16       1.0     0.996456     0.498228     0.155143    Uiso  ? Co
   Co17       1.0     0.499615    -0.000409     0.161511    Uiso  ? Co
   Co18       1.0     0.499618     0.500025     0.161510    Uiso  ? Co
   Co19       1.0     0.670196     0.835099     0.178046    Uiso  ? Co
   Co20       1.0     0.166984     0.333716     0.171841    Uiso  ? Co
   Co21       1.0     0.166985     0.833265     0.171842    Uiso  ? Co
   Co22       1.0     0.663356     0.831680     0.488780    Uiso  ? Co
   Co23       1.0     0.166252     0.332962     0.494865    Uiso  ? Co
   Co24       1.0     0.166254     0.833288     0.494866    Uiso  ? Co
   Co25       1.0     0.336641     0.168320     0.511219    Uiso  ? Co
   Co26       1.0     0.833746     0.667039     0.505134    Uiso  ? Co
   Co27       1.0     0.833747     0.166712     0.505134    Uiso  ? Co
   Co28       1.0     0.329805     0.164903     0.821955    Uiso  ? Co
   Co29       1.0     0.833014     0.666282     0.828161    Uiso  ? Co
   Co30       1.0     0.833017     0.166738     0.828161    Uiso  ? Co
   Co31       1.0     0.003547     0.501772     0.844858    Uiso  ? Co
   Co32       1.0     0.500380     0.000409     0.838490    Uiso  ? Co
   Co33       1.0     0.500384     0.499975     0.838489    Uiso  ? Co
   Mn1        1.0     0.667041     0.333521     0.231542    Uiso  ? Mn
   Mn2        1.0     0.333658     0.666827     0.564978    Uiso  ? Mn
   Mn3        1.0     0.000339     0.000169     0.898213    Uiso  ? Mn
   Mn4        1.0     0.666345     0.333176     0.435021    Uiso  ? Mn
   Mn5        1.0     0.332956     0.666478     0.768459    Uiso  ? Mn
   Mn6        1.0    -0.000334    -0.000168     0.101787    Uiso  ? Mn
   Mn7        1.0     0.963845     0.330590     0.331839    Uiso  ? Mn
   Mn8        1.0     0.369543     0.336090     0.334698    Uiso  ? Mn
   Mn9        1.0     0.630458     0.663907     0.665296    Uiso  ? Mn
   Mn10       1.0     0.036153     0.669409     0.668160    Uiso  ? Mn
   Mn11       1.0     0.297201    -0.002696    -0.001343    Uiso  ? Mn
   Mn12       1.0     0.702798     0.002694     0.001343    Uiso  ? Mn
   Mn13       1.0     0.963844     0.633256     0.331840    Uiso  ? Mn
   Mn14       1.0     0.369541     0.033453     0.334701    Uiso  ? Mn
   Mn15       1.0     0.630459     0.966552     0.665294    Uiso  ? Mn
   Mn16       1.0     0.036155     0.366743     0.668160    Uiso  ? Mn
   Mn17       1.0     0.297201     0.299896    -0.001341    Uiso  ? Mn
   Mn18       1.0     0.702796     0.700102     0.001341    Uiso  ? Mn
