
#======================================================================
# CRYSTAL DATA
#----------------------------------------------------------------------
data_VESTA_phase_1

_chemical_name_common                  'Sm9 Co27                              '
_cell_length_a                         5.049718
_cell_length_b                         5.049718
_cell_length_c                         24.491802
_cell_angle_alpha                      90.000000
_cell_angle_beta                       90.000000
_cell_angle_gamma                      120.000000
_cell_volume                           540.860929
_space_group_name_H-M_alt              'P 1'
_space_group_IT_number                 1

loop_
_space_group_symop_operation_xyz
   'x, y, z'

loop_
   _atom_site_label
   _atom_site_occupancy
   _atom_site_fract_x
   _atom_site_fract_y
   _atom_site_fract_z
   _atom_site_adp_type
   _atom_site_U_iso_or_equiv
   _atom_site_type_symbol
   Sm1        1.0     -0.000000     0.000000     -0.000000    Uiso  ? Sm
   Sm2        1.0     0.666667     0.333333     0.332677    Uiso  ? Sm
   Sm3        1.0     0.333333     0.666667     0.667323    Uiso  ? Sm
   Sm4        1.0     0.666667     0.333333     0.192684    Uiso  ? Sm
   Sm5        1.0     -0.000000     0.000000     0.139858    Uiso  ? Sm
   Sm6        1.0     0.333333     0.666667     0.526564    Uiso  ? Sm
   Sm7        1.0     0.666667     0.333333     0.473436    Uiso  ? Sm
   Sm8        1.0     -0.000000     0.000000     0.860142    Uiso  ? Sm
   Sm9        1.0     0.333333     0.666667     0.807316    Uiso  ? Sm
   Co1        1.0     0.333333     0.666667     0.167913    Uiso  ? Co
   Co2        1.0     -0.000000     0.000000     0.500000    Uiso  ? Co
   Co3        1.0     0.666667     0.333333     0.832087    Uiso  ? Co
   Co4        1.0     0.333333     0.666667    -0.000104    Uiso  ? Co
   Co5        1.0     -0.000000     0.000000     0.666971    Uiso  ? Co
   Co6        1.0     -0.000000     0.000000     0.333029    Uiso  ? Co
   Co7        1.0     0.666667     0.333333     0.000104    Uiso  ? Co
   Co8        1.0     0.669132     0.834566     0.251651    Uiso  ? Co
   Co9        1.0     0.165434     0.330868     0.251651    Uiso  ? Co
   Co10       1.0     0.165434     0.834566     0.251651    Uiso  ? Co
   Co11       1.0     0.002659     0.501329     0.080287    Uiso  ? Co
   Co12       1.0     0.498671    -0.002659     0.080287    Uiso  ? Co
   Co13       1.0     0.498671     0.501329     0.080287    Uiso  ? Co
   Co14       1.0     0.331004     0.165502     0.585602    Uiso  ? Co
   Co15       1.0     0.834498     0.668996     0.585602    Uiso  ? Co
   Co16       1.0     0.834498     0.165502     0.585602    Uiso  ? Co
   Co17       1.0     0.668996     0.834498     0.414398    Uiso  ? Co
   Co18       1.0     0.165502     0.834498     0.414398    Uiso  ? Co
   Co19       1.0     0.165502     0.331004     0.414398    Uiso  ? Co
   Co20       1.0    -0.002659     0.498671     0.919713    Uiso  ? Co
   Co21       1.0     0.501329     0.002659     0.919713    Uiso  ? Co
   Co22       1.0     0.501329     0.498671     0.919713    Uiso  ? Co
   Co23       1.0     0.330868     0.165434     0.748349    Uiso  ? Co
   Co24       1.0     0.834566     0.669132     0.748349    Uiso  ? Co
   Co25       1.0     0.834566     0.165434     0.748349    Uiso  ? Co
   Mn1        1.0     0.666667     0.333333     0.667483    Uiso  ? Mn
   Mn2        1.0     0.333333     0.666667     0.332517    Uiso  ? Mn
