
#======================================================================
# CRYSTAL DATA
#----------------------------------------------------------------------
data_VESTA_phase_1

_chemical_name_common                  'Sm6 Co51                              '
_cell_length_a                         8.362859
_cell_length_b                         8.362859
_cell_length_c                         12.138305
_cell_angle_alpha                      90.000000
_cell_angle_beta                       90.000000
_cell_angle_gamma                      120.000000
_cell_volume                           735.187632
_space_group_name_H-M_alt              'P 1'
_space_group_IT_number                 1

loop_
_space_group_symop_operation_xyz
   'x, y, z'

loop_
   _atom_site_label
   _atom_site_occupancy
   _atom_site_fract_x
   _atom_site_fract_y
   _atom_site_fract_z
   _atom_site_adp_type
   _atom_site_U_iso_or_equiv
   _atom_site_type_symbol
   Sm1        1.0     0.333333     0.666667     0.010299    Uiso  ? Sm
   Sm2        1.0     0.666667     0.333333    -0.012893    Uiso  ? Sm
   Sm3        1.0     0.333333     0.666667     0.320459    Uiso  ? Sm
   Sm4        1.0     -0.000000     -0.000000     0.344717    Uiso  ? Sm
   Sm5        1.0     -0.000000     -0.000000     0.655456    Uiso  ? Sm
   Sm6        1.0     0.666667     0.333333     0.677828    Uiso  ? Sm
   Co1        1.0     -0.000000     -0.000000     0.095514    Uiso  ? Co
   Co2        1.0     0.666667     0.333333     0.434002    Uiso  ? Co
   Co3        1.0     0.333333     0.666667     0.766958    Uiso  ? Co
   Co4        1.0     -0.000000     -0.000000     0.903695    Uiso  ? Co
   Co5        1.0     0.835645     0.164355     0.166729    Uiso  ? Co
   Co6        1.0     0.328708     0.164355     0.166729    Uiso  ? Co
   Co7        1.0     0.835645     0.671292     0.166729    Uiso  ? Co
   Co8        1.0     0.502399     0.497601     0.500392    Uiso  ? Co
   Co9        1.0    -0.004798     0.497601     0.500392    Uiso  ? Co
   Co10       1.0     0.502399     0.004798     0.500392    Uiso  ? Co
   Co11       1.0     0.166339     0.332676     0.833274    Uiso  ? Co
   Co12       1.0     0.166339     0.833661     0.833274    Uiso  ? Co
   Co13       1.0     0.667324     0.833661     0.833274    Uiso  ? Co
   Co14       1.0     0.000122     0.713877    -0.000099    Uiso  ? Co
   Co15       1.0     0.000122     0.286245    -0.000099    Uiso  ? Co
   Co16       1.0     0.286123    -0.000122    -0.000099    Uiso  ? Co
   Co17       1.0     0.286123     0.286245    -0.000099    Uiso  ? Co
   Co18       1.0     0.713755     0.713877    -0.000099    Uiso  ? Co
   Co19       1.0     0.713755    -0.000122    -0.000099    Uiso  ? Co
   Co20       1.0     0.379207     0.332607     0.333748    Uiso  ? Co
   Co21       1.0     0.379207     0.046599     0.333748    Uiso  ? Co
   Co22       1.0     0.667393     0.046599     0.333748    Uiso  ? Co
   Co23       1.0     0.667393     0.620793     0.333748    Uiso  ? Co
   Co24       1.0     0.953401     0.332607     0.333748    Uiso  ? Co
   Co25       1.0     0.953401     0.620793     0.333748    Uiso  ? Co
   Co26       1.0     0.046354     0.666523     0.667299    Uiso  ? Co
   Co27       1.0     0.046354     0.379832     0.667299    Uiso  ? Co
   Co28       1.0     0.333477     0.953646     0.667299    Uiso  ? Co
   Co29       1.0     0.333477     0.379832     0.667299    Uiso  ? Co
   Co30       1.0     0.620168     0.666523     0.667299    Uiso  ? Co
   Co31       1.0     0.620168     0.953646     0.667299    Uiso  ? Co
   Co32       1.0    -0.001354     0.499323     0.153141    Uiso  ? Co
   Co33       1.0     0.500677     0.001354     0.153141    Uiso  ? Co
   Co34       1.0     0.500677     0.499323     0.153141    Uiso  ? Co
   Co35       1.0     0.670527     0.835263     0.178549    Uiso  ? Co
   Co36       1.0     0.164737     0.329473     0.178549    Uiso  ? Co
   Co37       1.0     0.164737     0.835263     0.178549    Uiso  ? Co
   Co38       1.0     0.664764     0.832382     0.486350    Uiso  ? Co
   Co39       1.0     0.167618     0.335236     0.486350    Uiso  ? Co
   Co40       1.0     0.167618     0.832382     0.486350    Uiso  ? Co
   Co41       1.0     0.336745     0.168373     0.512531    Uiso  ? Co
   Co42       1.0     0.831627     0.663255     0.512531    Uiso  ? Co
   Co43       1.0     0.831627     0.168373     0.512531    Uiso  ? Co
   Co44       1.0     0.328398     0.164199     0.819903    Uiso  ? Co
   Co45       1.0     0.835801     0.671602     0.819903    Uiso  ? Co
   Co46       1.0     0.835801     0.164199     0.819903    Uiso  ? Co
   Co47       1.0     0.004307     0.502154     0.846289    Uiso  ? Co
   Co48       1.0     0.497846     0.995693     0.846289    Uiso  ? Co
   Co49       1.0     0.497846     0.502154     0.846289    Uiso  ? Co
   Mn1        1.0     0.666667     0.333333     0.236795    Uiso  ? Mn
   Mn2        1.0     0.333333     0.666667     0.570004    Uiso  ? Mn
