
#======================================================================
# CRYSTAL DATA
#----------------------------------------------------------------------
data_VESTA_phase_1

_chemical_name_common                  'Sm9 Co27                              '
_cell_length_a                         5.073289
_cell_length_b                         5.073289
_cell_length_c                         24.389963
_cell_angle_alpha                      90.000000
_cell_angle_beta                       90.000000
_cell_angle_gamma                      120.000000
_cell_volume                           543.652073
_space_group_name_H-M_alt              'P 1'
_space_group_IT_number                 1

loop_
_space_group_symop_operation_xyz
   'x, y, z'

loop_
   _atom_site_label
   _atom_site_occupancy
   _atom_site_fract_x
   _atom_site_fract_y
   _atom_site_fract_z
   _atom_site_adp_type
   _atom_site_U_iso_or_equiv
   _atom_site_type_symbol
   Sm1        1.0     0.000000     -0.000000     0.999724    Uiso  ? Sm
   Sm2        1.0     0.666667     0.333333     0.332989    Uiso  ? Sm
   Sm3        1.0     0.333333     0.666667     0.667190    Uiso  ? Sm
   Sm4        1.0     0.666667     0.333333     0.193062    Uiso  ? Sm
   Sm5        1.0     0.000000     -0.000000     0.140410    Uiso  ? Sm
   Sm6        1.0     0.333333     0.666667     0.526475    Uiso  ? Sm
   Sm7        1.0     0.666667     0.333333     0.473497    Uiso  ? Sm
   Sm8        1.0     0.000000     -0.000000     0.859539    Uiso  ? Sm
   Sm9        1.0     0.333333     0.666667     0.807251    Uiso  ? Sm
   Co1        1.0     0.333333     0.666667     0.167075    Uiso  ? Co
   Co2        1.0     0.000000     -0.000000     0.500031    Uiso  ? Co
   Co3        1.0     0.666667     0.333333     0.833302    Uiso  ? Co
   Co4        1.0     0.333333     0.666667     0.999733    Uiso  ? Co
   Co5        1.0     0.000000     -0.000000     0.666855    Uiso  ? Co
   Co6        1.0     0.000000     -0.000000     0.333005    Uiso  ? Co
   Co7        1.0     0.668794     0.834397     0.251836    Uiso  ? Co
   Co8        1.0     0.165603     0.331206     0.251836    Uiso  ? Co
   Co9        1.0     0.165603     0.834397     0.251836    Uiso  ? Co
   Co10       1.0     0.002928     0.501464     0.081476    Uiso  ? Co
   Co11       1.0     0.498536     0.997072     0.081476    Uiso  ? Co
   Co12       1.0     0.498536     0.501464     0.081476    Uiso  ? Co
   Co13       1.0     0.331023     0.165511     0.585438    Uiso  ? Co
   Co14       1.0     0.834489     0.668977     0.585438    Uiso  ? Co
   Co15       1.0     0.834489     0.165511     0.585438    Uiso  ? Co
   Co16       1.0     0.669194     0.834597     0.414583    Uiso  ? Co
   Co17       1.0     0.165403     0.834597     0.414583    Uiso  ? Co
   Co18       1.0     0.165403     0.330806     0.414583    Uiso  ? Co
   Co19       1.0     0.001420     0.500710     0.918522    Uiso  ? Co
   Co20       1.0     0.499290     0.998580     0.918522    Uiso  ? Co
   Co21       1.0     0.499290     0.500710     0.918522    Uiso  ? Co
   Co22       1.0     0.331599     0.165800     0.748232    Uiso  ? Co
   Co23       1.0     0.834200     0.668401     0.748232    Uiso  ? Co
   Co24       1.0     0.834200     0.165800     0.748232    Uiso  ? Co
   Mn1        1.0     0.666667     0.333333     0.667328    Uiso  ? Mn
   Mn2        1.0     0.333333     0.666667     0.332634    Uiso  ? Mn
   Mn3        1.0     0.666667     0.333333     0.999643    Uiso  ? Mn
