
#======================================================================
# CRYSTAL DATA
#----------------------------------------------------------------------
data_VESTA_phase_1

_chemical_name_common                  'Sm6 Co51                              '
_cell_length_a                         8.371850
_cell_length_b                         8.371850
_cell_length_c                         12.136537
_cell_angle_alpha                      90.000000
_cell_angle_beta                       90.000000
_cell_angle_gamma                      120.000000
_cell_volume                           736.662020
_space_group_name_H-M_alt              'P 1'
_space_group_IT_number                 1

loop_
_space_group_symop_operation_xyz
   'x, y, z'

loop_
   _atom_site_label
   _atom_site_occupancy
   _atom_site_fract_x
   _atom_site_fract_y
   _atom_site_fract_z
   _atom_site_adp_type
   _atom_site_U_iso_or_equiv
   _atom_site_type_symbol
   Sm1        1.0     0.333333     0.666667     0.010913    Uiso  ? Sm
   Sm2        1.0     0.666667     0.333333    -0.012851    Uiso  ? Sm
   Sm3        1.0     0.333333     0.666667     0.320385    Uiso  ? Sm
   Sm4        1.0     -0.000000     0.000000     0.344245    Uiso  ? Sm
   Sm5        1.0     -0.000000     0.000000     0.653934    Uiso  ? Sm
   Sm6        1.0     0.666667     0.333333     0.677689    Uiso  ? Sm
   Co1        1.0     -0.000000     0.000000     0.100599    Uiso  ? Co
   Co2        1.0     0.666667     0.333333     0.434053    Uiso  ? Co
   Co3        1.0     0.333333     0.666667     0.767028    Uiso  ? Co
   Co4        1.0     0.835657     0.164344     0.166850    Uiso  ? Co
   Co5        1.0     0.328686     0.164344     0.166850    Uiso  ? Co
   Co6        1.0     0.835657     0.671314     0.166850    Uiso  ? Co
   Co7        1.0     0.502315     0.497685     0.500198    Uiso  ? Co
   Co8        1.0    -0.004631     0.497685     0.500198    Uiso  ? Co
   Co9        1.0     0.502315     0.004631     0.500198    Uiso  ? Co
   Co10       1.0     0.169004     0.338006     0.833530    Uiso  ? Co
   Co11       1.0     0.169004     0.830996     0.833530    Uiso  ? Co
   Co12       1.0     0.661994     0.830996     0.833530    Uiso  ? Co
   Co13       1.0     0.000579     0.713385     0.000431    Uiso  ? Co
   Co14       1.0     0.000579     0.287193     0.000431    Uiso  ? Co
   Co15       1.0     0.286615    -0.000579     0.000431    Uiso  ? Co
   Co16       1.0     0.286615     0.287193     0.000431    Uiso  ? Co
   Co17       1.0     0.712807     0.713385     0.000431    Uiso  ? Co
   Co18       1.0     0.712807    -0.000579     0.000431    Uiso  ? Co
   Co19       1.0     0.379513     0.332669     0.333812    Uiso  ? Co
   Co20       1.0     0.379513     0.046843     0.333812    Uiso  ? Co
   Co21       1.0     0.667331     0.046843     0.333812    Uiso  ? Co
   Co22       1.0     0.667331     0.620487     0.333812    Uiso  ? Co
   Co23       1.0     0.953157     0.332669     0.333812    Uiso  ? Co
   Co24       1.0     0.953157     0.620487     0.333812    Uiso  ? Co
   Co25       1.0     0.046209     0.666083     0.667082    Uiso  ? Co
   Co26       1.0     0.046209     0.380128     0.667082    Uiso  ? Co
   Co27       1.0     0.333917     0.953791     0.667082    Uiso  ? Co
   Co28       1.0     0.333917     0.380128     0.667082    Uiso  ? Co
   Co29       1.0     0.619872     0.666083     0.667082    Uiso  ? Co
   Co30       1.0     0.619872     0.953791     0.667082    Uiso  ? Co
   Co31       1.0    -0.002059     0.498970     0.152653    Uiso  ? Co
   Co32       1.0     0.501030     0.002059     0.152653    Uiso  ? Co
   Co33       1.0     0.501030     0.498970     0.152653    Uiso  ? Co
   Co34       1.0     0.670202     0.835100     0.178889    Uiso  ? Co
   Co35       1.0     0.164900     0.329798     0.178889    Uiso  ? Co
   Co36       1.0     0.164900     0.835100     0.178889    Uiso  ? Co
   Co37       1.0     0.664605     0.832302     0.485901    Uiso  ? Co
   Co38       1.0     0.167698     0.335395     0.485901    Uiso  ? Co
   Co39       1.0     0.167698     0.832302     0.485901    Uiso  ? Co
   Co40       1.0     0.336919     0.168460     0.512453    Uiso  ? Co
   Co41       1.0     0.831540     0.663081     0.512453    Uiso  ? Co
   Co42       1.0     0.831540     0.168460     0.512453    Uiso  ? Co
   Co43       1.0     0.331324     0.165662     0.819404    Uiso  ? Co
   Co44       1.0     0.834338     0.668676     0.819404    Uiso  ? Co
   Co45       1.0     0.834338     0.165662     0.819404    Uiso  ? Co
   Co46       1.0     0.003738     0.501869     0.845510    Uiso  ? Co
   Co47       1.0     0.498131     0.996262     0.845510    Uiso  ? Co
   Co48       1.0     0.498131     0.501869     0.845510    Uiso  ? Co
   Mn1        1.0     0.666667     0.333333     0.236778    Uiso  ? Mn
   Mn2        1.0     0.333333     0.666667     0.569792    Uiso  ? Mn
   Mn3        1.0     -0.000000     0.000000     0.903329    Uiso  ? Mn
