
#======================================================================
# CRYSTAL DATA
#----------------------------------------------------------------------
data_VESTA_phase_1

_chemical_name_common                  'Sm6 Co51                              '
_cell_length_a                         8.376698
_cell_length_b                         8.376698
_cell_length_c                         12.168678
_cell_angle_alpha                      90.000000
_cell_angle_beta                       90.000000
_cell_angle_gamma                      120.000000
_cell_volume                           739.468722
_space_group_name_H-M_alt              'P 1'
_space_group_IT_number                 1

loop_
_space_group_symop_operation_xyz
   'x, y, z'

loop_
   _atom_site_label
   _atom_site_occupancy
   _atom_site_fract_x
   _atom_site_fract_y
   _atom_site_fract_z
   _atom_site_adp_type
   _atom_site_U_iso_or_equiv
   _atom_site_type_symbol
   Sm1        1.0     0.333333     0.666667     0.011051    Uiso  ? Sm
   Sm2        1.0     0.666667     0.333333    -0.014959    Uiso  ? Sm
   Sm3        1.0     0.333333     0.666667     0.319711    Uiso  ? Sm
   Sm4        1.0     -0.000000     0.000000     0.344149    Uiso  ? Sm
   Sm5        1.0     -0.000000     0.000000     0.654406    Uiso  ? Sm
   Sm6        1.0     0.666667     0.333333     0.682169    Uiso  ? Sm
   Co1        1.0     -0.000000     0.000000     0.100409    Uiso  ? Co
   Co2        1.0     0.333333     0.666667     0.767263    Uiso  ? Co
   Co3        1.0     0.836174     0.163826     0.166475    Uiso  ? Co
   Co4        1.0     0.327650     0.163826     0.166475    Uiso  ? Co
   Co5        1.0     0.836174     0.672350     0.166475    Uiso  ? Co
   Co6        1.0     0.499410     0.500590     0.500333    Uiso  ? Co
   Co7        1.0     0.001180     0.500590     0.500333    Uiso  ? Co
   Co8        1.0     0.499410    -0.001180     0.500333    Uiso  ? Co
   Co9        1.0     0.169305     0.338609     0.833586    Uiso  ? Co
   Co10       1.0     0.169305     0.830695     0.833586    Uiso  ? Co
   Co11       1.0     0.661391     0.830695     0.833586    Uiso  ? Co
   Co12       1.0     0.000795     0.713711     0.000235    Uiso  ? Co
   Co13       1.0     0.000795     0.287084     0.000235    Uiso  ? Co
   Co14       1.0     0.286289    -0.000795     0.000235    Uiso  ? Co
   Co15       1.0     0.286289     0.287084     0.000235    Uiso  ? Co
   Co16       1.0     0.712916     0.713711     0.000235    Uiso  ? Co
   Co17       1.0     0.712916    -0.000795     0.000235    Uiso  ? Co
   Co18       1.0     0.381001     0.333538     0.333121    Uiso  ? Co
   Co19       1.0     0.381001     0.047461     0.333121    Uiso  ? Co
   Co20       1.0     0.666462     0.047461     0.333121    Uiso  ? Co
   Co21       1.0     0.666462     0.618999     0.333121    Uiso  ? Co
   Co22       1.0     0.952539     0.333538     0.333121    Uiso  ? Co
   Co23       1.0     0.952539     0.618999     0.333121    Uiso  ? Co
   Co24       1.0     0.046306     0.666355     0.667341    Uiso  ? Co
   Co25       1.0     0.046306     0.379952     0.667341    Uiso  ? Co
   Co26       1.0     0.333645     0.953694     0.667341    Uiso  ? Co
   Co27       1.0     0.333645     0.379952     0.667341    Uiso  ? Co
   Co28       1.0     0.620048     0.666355     0.667341    Uiso  ? Co
   Co29       1.0     0.620048     0.953694     0.667341    Uiso  ? Co
   Co30       1.0    -0.002110     0.498945     0.151662    Uiso  ? Co
   Co31       1.0     0.501055     0.002110     0.151662    Uiso  ? Co
   Co32       1.0     0.501055     0.498945     0.151662    Uiso  ? Co
   Co33       1.0     0.670565     0.835282     0.179566    Uiso  ? Co
   Co34       1.0     0.164718     0.329435     0.179566    Uiso  ? Co
   Co35       1.0     0.164718     0.835282     0.179566    Uiso  ? Co
   Co36       1.0     0.666721     0.833360     0.486318    Uiso  ? Co
   Co37       1.0     0.166640     0.333279     0.486318    Uiso  ? Co
   Co38       1.0     0.166640     0.833360     0.486318    Uiso  ? Co
   Co39       1.0     0.333223     0.166612     0.513333    Uiso  ? Co
   Co40       1.0     0.833388     0.666777     0.513333    Uiso  ? Co
   Co41       1.0     0.833388     0.166612     0.513333    Uiso  ? Co
   Co42       1.0     0.330592     0.165297     0.819802    Uiso  ? Co
   Co43       1.0     0.834703     0.669408     0.819802    Uiso  ? Co
   Co44       1.0     0.834703     0.165297     0.819802    Uiso  ? Co
   Co45       1.0     0.004435     0.502217     0.845921    Uiso  ? Co
   Co46       1.0     0.497783     0.995565     0.845921    Uiso  ? Co
   Co47       1.0     0.497783     0.502217     0.845921    Uiso  ? Co
   Mn1        1.0     0.666667     0.333333     0.229551    Uiso  ? Mn
   Mn2        1.0     0.333333     0.666667     0.569707    Uiso  ? Mn
   Mn3        1.0     -0.000000     0.000000     0.903284    Uiso  ? Mn
   Mn4        1.0     0.666667     0.333333     0.438091    Uiso  ? Mn
