
#======================================================================
# CRYSTAL DATA
#----------------------------------------------------------------------
data_VESTA_phase_1

_chemical_name_common                  'Sm9 Co27                              '
_cell_length_a                         5.103079
_cell_length_b                         5.103079
_cell_length_c                         24.088165
_cell_angle_alpha                      90.000000
_cell_angle_beta                       90.000000
_cell_angle_gamma                      120.000000
_cell_volume                           543.248969
_space_group_name_H-M_alt              'P 1'
_space_group_IT_number                 1

loop_
_space_group_symop_operation_xyz
   'x, y, z'

loop_
   _atom_site_label
   _atom_site_occupancy
   _atom_site_fract_x
   _atom_site_fract_y
   _atom_site_fract_z
   _atom_site_adp_type
   _atom_site_U_iso_or_equiv
   _atom_site_type_symbol
   Sm1        1.0     0.000000     0.000000     0.998931    Uiso  ? Sm
   Sm2        1.0     0.666667     0.333333     0.333896    Uiso  ? Sm
   Sm3        1.0     0.333333     0.666667     0.666857    Uiso  ? Sm
   Sm4        1.0     0.666667     0.333333     0.193150    Uiso  ? Sm
   Sm5        1.0     0.000000     0.000000     0.140432    Uiso  ? Sm
   Sm6        1.0     0.333333     0.666667     0.527987    Uiso  ? Sm
   Sm7        1.0     0.666667     0.333333     0.475503    Uiso  ? Sm
   Sm8        1.0     0.000000     0.000000     0.857686    Uiso  ? Sm
   Sm9        1.0     0.333333     0.666667     0.805257    Uiso  ? Sm
   Co1        1.0     0.333333     0.666667     0.166833    Uiso  ? Co
   Co2        1.0     0.000000     0.000000     0.502550    Uiso  ? Co
   Co3        1.0     0.666667     0.333333     0.831464    Uiso  ? Co
   Co4        1.0     0.333333     0.666667     0.998963    Uiso  ? Co
   Co5        1.0     0.000000     0.000000     0.333119    Uiso  ? Co
   Co6        1.0     0.668069     0.834034     0.252037    Uiso  ? Co
   Co7        1.0     0.165966     0.331931     0.252037    Uiso  ? Co
   Co8        1.0     0.165966     0.834034     0.252037    Uiso  ? Co
   Co9        1.0     0.003011     0.501506     0.081263    Uiso  ? Co
   Co10       1.0     0.498494     0.996989     0.081263    Uiso  ? Co
   Co11       1.0     0.498494     0.501506     0.081263    Uiso  ? Co
   Co12       1.0     0.333141     0.166570     0.586987    Uiso  ? Co
   Co13       1.0     0.833430     0.666859     0.586987    Uiso  ? Co
   Co14       1.0     0.833430     0.166570     0.586987    Uiso  ? Co
   Co15       1.0     0.671282     0.835641     0.415765    Uiso  ? Co
   Co16       1.0     0.164359     0.835641     0.415765    Uiso  ? Co
   Co17       1.0     0.164359     0.328718     0.415765    Uiso  ? Co
   Co18       1.0     0.000635     0.500318     0.917475    Uiso  ? Co
   Co19       1.0     0.499682     0.999365     0.917475    Uiso  ? Co
   Co20       1.0     0.499682     0.500318     0.917475    Uiso  ? Co
   Co21       1.0     0.333662     0.166831     0.746642    Uiso  ? Co
   Co22       1.0     0.833169     0.666338     0.746642    Uiso  ? Co
   Co23       1.0     0.833169     0.166831     0.746642    Uiso  ? Co
   Mn1        1.0     0.666667     0.333333     0.667299    Uiso  ? Mn
   Mn2        1.0     0.333333     0.666667     0.333706    Uiso  ? Mn
   Mn3        1.0     0.666667     0.333333     0.999248    Uiso  ? Mn
   Mn4        1.0     0.000000     0.000000     0.666614    Uiso  ? Mn
