
#======================================================================
# CRYSTAL DATA
#----------------------------------------------------------------------
data_VESTA_phase_1

_chemical_name_common                  'Sm6 Co51                              '
_cell_length_a                         8.379079
_cell_length_b                         8.379079
_cell_length_c                         12.198770
_cell_angle_alpha                      90.000000
_cell_angle_beta                       90.000000
_cell_angle_gamma                      120.000000
_cell_volume                           741.718678
_space_group_name_H-M_alt              'P 1'
_space_group_IT_number                 1

loop_
_space_group_symop_operation_xyz
   'x, y, z'

loop_
   _atom_site_label
   _atom_site_occupancy
   _atom_site_fract_x
   _atom_site_fract_y
   _atom_site_fract_z
   _atom_site_adp_type
   _atom_site_U_iso_or_equiv
   _atom_site_type_symbol
   Sm1        1.0     0.333333     0.666667     0.015322    Uiso  ? Sm
   Sm2        1.0     0.666667     0.333333    -0.014369    Uiso  ? Sm
   Sm3        1.0     0.333333     0.666667     0.317801    Uiso  ? Sm
   Sm4        1.0     0.000000     -0.000000     0.343930    Uiso  ? Sm
   Sm5        1.0     0.000000     -0.000000     0.653817    Uiso  ? Sm
   Sm6        1.0     0.666667     0.333333     0.682018    Uiso  ? Sm
   Co1        1.0     0.000000     -0.000000     0.100286    Uiso  ? Co
   Co2        1.0     0.836367     0.163633     0.166414    Uiso  ? Co
   Co3        1.0     0.327266     0.163633     0.166414    Uiso  ? Co
   Co4        1.0     0.836367     0.672734     0.166414    Uiso  ? Co
   Co5        1.0     0.499834     0.500166     0.499920    Uiso  ? Co
   Co6        1.0     0.000332     0.500166     0.499920    Uiso  ? Co
   Co7        1.0     0.499834    -0.000332     0.499920    Uiso  ? Co
   Co8        1.0     0.166306     0.332610     0.833811    Uiso  ? Co
   Co9        1.0     0.166306     0.833694     0.833811    Uiso  ? Co
   Co10       1.0     0.667390     0.833694     0.833811    Uiso  ? Co
   Co11       1.0     0.000478     0.713392     0.000436    Uiso  ? Co
   Co12       1.0     0.000478     0.287086     0.000436    Uiso  ? Co
   Co13       1.0     0.286608    -0.000478     0.000436    Uiso  ? Co
   Co14       1.0     0.286608     0.287086     0.000436    Uiso  ? Co
   Co15       1.0     0.712914     0.713392     0.000436    Uiso  ? Co
   Co16       1.0     0.712914    -0.000478     0.000436    Uiso  ? Co
   Co17       1.0     0.380958     0.333320     0.332943    Uiso  ? Co
   Co18       1.0     0.380958     0.047637     0.332943    Uiso  ? Co
   Co19       1.0     0.666680     0.047637     0.332943    Uiso  ? Co
   Co20       1.0     0.666680     0.619042     0.332943    Uiso  ? Co
   Co21       1.0     0.952363     0.333320     0.332943    Uiso  ? Co
   Co22       1.0     0.952363     0.619042     0.332943    Uiso  ? Co
   Co23       1.0     0.047630     0.666884     0.666882    Uiso  ? Co
   Co24       1.0     0.047630     0.380748     0.666882    Uiso  ? Co
   Co25       1.0     0.333116     0.952370     0.666882    Uiso  ? Co
   Co26       1.0     0.333116     0.380748     0.666882    Uiso  ? Co
   Co27       1.0     0.619252     0.666884     0.666882    Uiso  ? Co
   Co28       1.0     0.619252     0.952370     0.666882    Uiso  ? Co
   Co29       1.0     0.997154     0.498577     0.152216    Uiso  ? Co
   Co30       1.0     0.501423     0.002846     0.152216    Uiso  ? Co
   Co31       1.0     0.501423     0.498577     0.152216    Uiso  ? Co
   Co32       1.0     0.671220     0.835610     0.179568    Uiso  ? Co
   Co33       1.0     0.164390     0.328780     0.179568    Uiso  ? Co
   Co34       1.0     0.164390     0.835610     0.179568    Uiso  ? Co
   Co35       1.0     0.666961     0.833480     0.485589    Uiso  ? Co
   Co36       1.0     0.166520     0.333039     0.485589    Uiso  ? Co
   Co37       1.0     0.166520     0.833480     0.485589    Uiso  ? Co
   Co38       1.0     0.333044     0.166522     0.513636    Uiso  ? Co
   Co39       1.0     0.833478     0.666956     0.513636    Uiso  ? Co
   Co40       1.0     0.833478     0.166522     0.513636    Uiso  ? Co
   Co41       1.0     0.332706     0.166353     0.820178    Uiso  ? Co
   Co42       1.0     0.833647     0.667294     0.820178    Uiso  ? Co
   Co43       1.0     0.833647     0.166353     0.820178    Uiso  ? Co
   Co44       1.0     0.000782     0.500391     0.847115    Uiso  ? Co
   Co45       1.0     0.499609    -0.000782     0.847115    Uiso  ? Co
   Co46       1.0     0.499609     0.500391     0.847115    Uiso  ? Co
   Mn1        1.0     0.666667     0.333333     0.229896    Uiso  ? Mn
   Mn2        1.0     0.333333     0.666667     0.562434    Uiso  ? Mn
   Mn3        1.0     0.000000     -0.000000     0.903011    Uiso  ? Mn
   Mn4        1.0     0.666667     0.333333     0.438209    Uiso  ? Mn
   Mn5        1.0     0.333333     0.666667     0.770748    Uiso  ? Mn
