
#======================================================================
# CRYSTAL DATA
#----------------------------------------------------------------------
data_VESTA_phase_1

_chemical_name_common                  'Sm6 Co51                              '
_cell_length_a                         8.379848
_cell_length_b                         8.379848
_cell_length_c                         12.224552
_cell_angle_alpha                      90.000000
_cell_angle_beta                       90.000000
_cell_angle_gamma                      120.000000
_cell_volume                           743.422708
_space_group_name_H-M_alt              'P 1'
_space_group_IT_number                 1

loop_
_space_group_symop_operation_xyz
   'x, y, z'

loop_
   _atom_site_label
   _atom_site_occupancy
   _atom_site_fract_x
   _atom_site_fract_y
   _atom_site_fract_z
   _atom_site_adp_type
   _atom_site_U_iso_or_equiv
   _atom_site_type_symbol
   Sm1        1.0     0.333333     0.666667     0.015009    Uiso  ? Sm
   Sm2        1.0     0.666667     0.333333    -0.015009    Uiso  ? Sm
   Sm3        1.0     0.333333     0.666667     0.318336    Uiso  ? Sm
   Sm4        1.0     0.000000     0.000000     0.348209    Uiso  ? Sm
   Sm5        1.0     0.000000     0.000000     0.651791    Uiso  ? Sm
   Sm6        1.0     0.666667     0.333333     0.681664    Uiso  ? Sm
   Co1        1.0     0.833328     0.166672     0.166554    Uiso  ? Co
   Co2        1.0     0.333343     0.166672     0.166554    Uiso  ? Co
   Co3        1.0     0.833328     0.666657     0.166554    Uiso  ? Co
   Co4        1.0     0.500000     0.500000     0.500000    Uiso  ? Co
   Co5        1.0     0.000000     0.500000     0.500000    Uiso  ? Co
   Co6        1.0     0.500000     0.000000     0.500000    Uiso  ? Co
   Co7        1.0     0.166672     0.333343     0.833446    Uiso  ? Co
   Co8        1.0     0.166672     0.833328     0.833446    Uiso  ? Co
   Co9        1.0     0.666657     0.833328     0.833446    Uiso  ? Co
   Co10       1.0     -0.000000     0.714073     0.000000    Uiso  ? Co
   Co11       1.0     0.000000     0.285927     0.000000    Uiso  ? Co
   Co12       1.0     0.285927     -0.000000     0.000000    Uiso  ? Co
   Co13       1.0     0.285927     0.285927     0.000000    Uiso  ? Co
   Co14       1.0     0.714073     0.714073     0.000000    Uiso  ? Co
   Co15       1.0     0.714073     0.000000     0.000000    Uiso  ? Co
   Co16       1.0     0.380995     0.333330     0.333318    Uiso  ? Co
   Co17       1.0     0.380995     0.047664     0.333318    Uiso  ? Co
   Co18       1.0     0.666670     0.047664     0.333318    Uiso  ? Co
   Co19       1.0     0.666670     0.619005     0.333318    Uiso  ? Co
   Co20       1.0     0.952336     0.333330     0.333318    Uiso  ? Co
   Co21       1.0     0.952336     0.619005     0.333318    Uiso  ? Co
   Co22       1.0     0.047664     0.666670     0.666682    Uiso  ? Co
   Co23       1.0     0.047664     0.380995     0.666682    Uiso  ? Co
   Co24       1.0     0.333330     0.952336     0.666682    Uiso  ? Co
   Co25       1.0     0.333330     0.380995     0.666682    Uiso  ? Co
   Co26       1.0     0.619005     0.666670     0.666682    Uiso  ? Co
   Co27       1.0     0.619005     0.952336     0.666682    Uiso  ? Co
   Co28       1.0    -0.000569     0.499715     0.152721    Uiso  ? Co
   Co29       1.0     0.500285     0.000569     0.152721    Uiso  ? Co
   Co30       1.0     0.500285     0.499715     0.152721    Uiso  ? Co
   Co31       1.0     0.667162     0.833580     0.180407    Uiso  ? Co
   Co32       1.0     0.166420     0.332838     0.180407    Uiso  ? Co
   Co33       1.0     0.166420     0.833580     0.180407    Uiso  ? Co
   Co34       1.0     0.666280     0.833139     0.485925    Uiso  ? Co
   Co35       1.0     0.166861     0.333720     0.485925    Uiso  ? Co
   Co36       1.0     0.166861     0.833139     0.485925    Uiso  ? Co
   Co37       1.0     0.333720     0.166861     0.514075    Uiso  ? Co
   Co38       1.0     0.833139     0.666280     0.514075    Uiso  ? Co
   Co39       1.0     0.833139     0.166861     0.514075    Uiso  ? Co
   Co40       1.0     0.332838     0.166420     0.819593    Uiso  ? Co
   Co41       1.0     0.833580     0.667162     0.819593    Uiso  ? Co
   Co42       1.0     0.833580     0.166420     0.819593    Uiso  ? Co
   Co43       1.0     0.000569     0.500285     0.847279    Uiso  ? Co
   Co44       1.0     0.499715    -0.000569     0.847279    Uiso  ? Co
   Co45       1.0     0.499715     0.500285     0.847279    Uiso  ? Co
   Mn1        1.0     0.666667     0.333333     0.229209    Uiso  ? Mn
   Mn2        1.0     0.333333     0.666667     0.562599    Uiso  ? Mn
   Mn3        1.0     0.000000     0.000000     0.895990    Uiso  ? Mn
   Mn4        1.0     0.666667     0.333333     0.437401    Uiso  ? Mn
   Mn5        1.0     0.333333     0.666667     0.770791    Uiso  ? Mn
   Mn6        1.0     0.000000     0.000000     0.104010    Uiso  ? Mn
