
#======================================================================
# CRYSTAL DATA
#----------------------------------------------------------------------
data_VESTA_phase_1

_chemical_name_common                  'Sm6 Co51                              '
_cell_length_a                         8.386870
_cell_length_b                         8.388116
_cell_length_c                         12.285009
_cell_angle_alpha                      89.932671
_cell_angle_beta                       90.000000
_cell_angle_gamma                      119.995087
_cell_volume                           748.499608
_space_group_name_H-M_alt              'P 1'
_space_group_IT_number                 1

loop_
_space_group_symop_operation_xyz
   'x, y, z'

loop_
   _atom_site_label
   _atom_site_occupancy
   _atom_site_fract_x
   _atom_site_fract_y
   _atom_site_fract_z
   _atom_site_adp_type
   _atom_site_U_iso_or_equiv
   _atom_site_type_symbol
   Sm1        1.0     0.333863     0.667728     0.013295    Uiso  ? Sm
   Sm2        1.0     0.666330     0.332659    -0.014812    Uiso  ? Sm
   Sm3        1.0     0.337217     0.674435     0.318424    Uiso  ? Sm
   Sm4        1.0    -0.003845    -0.007690     0.348170    Uiso  ? Sm
   Sm5        1.0    -0.000547    -0.001094     0.653367    Uiso  ? Sm
   Sm6        1.0     0.667013     0.334025     0.681512    Uiso  ? Sm
   Co1        1.0     0.831505     0.165428     0.164316    Uiso  ? Co
   Co2        1.0     0.333922     0.165428     0.164316    Uiso  ? Co
   Co3        1.0     0.832509     0.665018     0.166735    Uiso  ? Co
   Co4        1.0     0.501776     0.501210     0.502342    Uiso  ? Co
   Co5        1.0    -0.000565     0.501210     0.502342    Uiso  ? Co
   Co6        1.0     0.500810     0.001620     0.499897    Uiso  ? Co
   Co7        1.0     0.166643     0.333284     0.833416    Uiso  ? Co
   Co8        1.0     0.166663     0.833289     0.833425    Uiso  ? Co
   Co9        1.0     0.666628     0.833289     0.833425    Uiso  ? Co
   Co10       1.0    -0.000656     0.712998    -0.000302    Uiso  ? Co
   Co11       1.0    -0.000986     0.285093    -0.001879    Uiso  ? Co
   Co12       1.0     0.285433    -0.000269    -0.000513    Uiso  ? Co
   Co13       1.0     0.286078     0.285093    -0.001879    Uiso  ? Co
   Co14       1.0     0.713653     0.712998    -0.000302    Uiso  ? Co
   Co15       1.0     0.714298    -0.000269    -0.000513    Uiso  ? Co
   Co16       1.0     0.381080     0.046282     0.332395    Uiso  ? Co
   Co17       1.0     0.665203     0.046282     0.332395    Uiso  ? Co
   Co18       1.0     0.668096     0.620520     0.334198    Uiso  ? Co
   Co19       1.0     0.952425     0.620520     0.334198    Uiso  ? Co
   Co20       1.0     0.048077     0.666937     0.667215    Uiso  ? Co
   Co21       1.0     0.047232     0.381533     0.668630    Uiso  ? Co
   Co22       1.0     0.333978     0.953669     0.666978    Uiso  ? Co
   Co23       1.0     0.334300     0.381533     0.668630    Uiso  ? Co
   Co24       1.0     0.618859     0.666937     0.667215    Uiso  ? Co
   Co25       1.0     0.619690     0.953669     0.666978    Uiso  ? Co
   Co26       1.0    -0.000960     0.500906     0.152234    Uiso  ? Co
   Co27       1.0     0.500088     0.000176     0.151489    Uiso  ? Co
   Co28       1.0     0.501866     0.500906     0.152234    Uiso  ? Co
   Co29       1.0     0.666195     0.832638     0.178747    Uiso  ? Co
   Co30       1.0     0.166468     0.332934     0.169413    Uiso  ? Co
   Co31       1.0     0.166444     0.832638     0.178747    Uiso  ? Co
   Co32       1.0     0.666998     0.833854     0.487936    Uiso  ? Co
   Co33       1.0     0.166844     0.333687     0.497202    Uiso  ? Co
   Co34       1.0     0.166857     0.833854     0.487936    Uiso  ? Co
   Co35       1.0     0.334238     0.165785     0.514266    Uiso  ? Co
   Co36       1.0     0.833239     0.666479     0.515022    Uiso  ? Co
   Co37       1.0     0.831546     0.165785     0.514266    Uiso  ? Co
   Co38       1.0     0.333248     0.166079     0.819319    Uiso  ? Co
   Co39       1.0     0.833321     0.666643     0.819913    Uiso  ? Co
   Co40       1.0     0.832831     0.166079     0.819319    Uiso  ? Co
   Co41       1.0     0.000059     0.500583     0.847591    Uiso  ? Co
   Co42       1.0     0.500075     0.000149     0.846591    Uiso  ? Co
   Co43       1.0     0.500524     0.500583     0.847591    Uiso  ? Co
   Mn1        1.0     0.666326     0.332651     0.229877    Uiso  ? Mn
   Mn2        1.0     0.335273     0.670548     0.563449    Uiso  ? Mn
   Mn3        1.0    -0.000083    -0.000167     0.895953    Uiso  ? Mn
   Mn4        1.0     0.667108     0.334215     0.436700    Uiso  ? Mn
   Mn5        1.0     0.333364     0.666728     0.770828    Uiso  ? Mn
   Mn6        1.0    -0.001960    -0.003919     0.103249    Uiso  ? Mn
   Mn7        1.0     0.966145     0.333411     0.333257    Uiso  ? Mn
   Mn8        1.0     0.367267     0.333411     0.333257    Uiso  ? Mn
