
#======================================================================
# CRYSTAL DATA
#----------------------------------------------------------------------
data_VESTA_phase_1

_chemical_name_common                  'Sm6 Co51                              '
_cell_length_a                         8.386280
_cell_length_b                         8.393891
_cell_length_c                         12.313227
_cell_angle_alpha                      89.935783
_cell_angle_beta                       90.011070
_cell_angle_gamma                      119.960129
_cell_volume                           750.946929
_space_group_name_H-M_alt              'P 1'
_space_group_IT_number                 1

loop_
_space_group_symop_operation_xyz
   'x, y, z'

loop_
   _atom_site_label
   _atom_site_occupancy
   _atom_site_fract_x
   _atom_site_fract_y
   _atom_site_fract_z
   _atom_site_adp_type
   _atom_site_U_iso_or_equiv
   _atom_site_type_symbol
   Sm1        1.0     0.333855     0.668136     0.013402    Uiso  ? Sm
   Sm2        1.0     0.666564     0.331752    -0.014021    Uiso  ? Sm
   Sm3        1.0     0.336895     0.674263     0.318523    Uiso  ? Sm
   Sm4        1.0    -0.002597    -0.006540     0.347265    Uiso  ? Sm
   Sm5        1.0     0.001623     0.003316     0.653235    Uiso  ? Sm
   Sm6        1.0     0.664940     0.329341     0.681614    Uiso  ? Sm
   Co1        1.0     0.831829     0.165662     0.164353    Uiso  ? Co
   Co2        1.0     0.333800     0.165540     0.164245    Uiso  ? Co
   Co3        1.0     0.832856     0.664981     0.166804    Uiso  ? Co
   Co4        1.0     0.499829     0.499792     0.500122    Uiso  ? Co
   Co5        1.0    -0.000106     0.501784     0.502495    Uiso  ? Co
   Co6        1.0     0.500329     0.000887     0.499877    Uiso  ? Co
   Co7        1.0     0.167147     0.334028     0.833290    Uiso  ? Co
   Co8        1.0     0.166848     0.832572     0.833467    Uiso  ? Co
   Co9        1.0     0.666553     0.834378     0.835380    Uiso  ? Co
   Co10       1.0    -0.000255     0.713311     0.000244    Uiso  ? Co
   Co11       1.0    -0.000578     0.284956    -0.001710    Uiso  ? Co
   Co12       1.0     0.284808    -0.000310    -0.000290    Uiso  ? Co
   Co13       1.0     0.287326     0.286450    -0.001770    Uiso  ? Co
   Co14       1.0     0.713239     0.713156     0.000949    Uiso  ? Co
   Co15       1.0     0.714610    -0.000025    -0.000319    Uiso  ? Co
   Co16       1.0     0.381459     0.046300     0.332232    Uiso  ? Co
   Co17       1.0     0.665074     0.045275     0.332236    Uiso  ? Co
   Co18       1.0     0.667768     0.619899     0.332687    Uiso  ? Co
   Co19       1.0     0.953090     0.620209     0.333455    Uiso  ? Co
   Co20       1.0     0.039349     0.667041     0.667182    Uiso  ? Co
   Co21       1.0     0.046659     0.384317     0.669072    Uiso  ? Co
   Co22       1.0     0.331228     0.951538     0.667078    Uiso  ? Co
   Co23       1.0     0.330513     0.378862     0.667932    Uiso  ? Co
   Co24       1.0     0.617847     0.955458     0.667802    Uiso  ? Co
   Co25       1.0    -0.000440     0.500995     0.152091    Uiso  ? Co
   Co26       1.0     0.499879     0.000168     0.151750    Uiso  ? Co
   Co27       1.0     0.501947     0.501159     0.152164    Uiso  ? Co
   Co28       1.0     0.666382     0.833493     0.178959    Uiso  ? Co
   Co29       1.0     0.166756     0.333184     0.169139    Uiso  ? Co
   Co30       1.0     0.166969     0.832942     0.179130    Uiso  ? Co
   Co31       1.0     0.666723     0.834781     0.487117    Uiso  ? Co
   Co32       1.0     0.165847     0.334194     0.497379    Uiso  ? Co
   Co33       1.0     0.167733     0.834596     0.487232    Uiso  ? Co
   Co34       1.0     0.334476     0.166063     0.513784    Uiso  ? Co
   Co35       1.0     0.834979     0.666948     0.507714    Uiso  ? Co
   Co36       1.0     0.831875     0.165249     0.513910    Uiso  ? Co
   Co37       1.0     0.333960     0.165947     0.820111    Uiso  ? Co
   Co38       1.0     0.834708     0.666135     0.826243    Uiso  ? Co
   Co39       1.0     0.833062     0.165813     0.819583    Uiso  ? Co
   Co40       1.0     0.000872     0.499847     0.848182    Uiso  ? Co
   Co41       1.0     0.499214    -0.000292     0.847725    Uiso  ? Co
   Co42       1.0     0.499342     0.499143     0.847631    Uiso  ? Co
   Mn1        1.0     0.666598     0.332737     0.229777    Uiso  ? Mn
   Mn2        1.0     0.334689     0.670713     0.563871    Uiso  ? Mn
   Mn3        1.0     0.001795     0.002097     0.896264    Uiso  ? Mn
   Mn4        1.0     0.666813     0.331742     0.436373    Uiso  ? Mn
   Mn5        1.0     0.333450     0.667114     0.770676    Uiso  ? Mn
   Mn6        1.0    -0.002069    -0.004491     0.103204    Uiso  ? Mn
   Mn7        1.0     0.966523     0.333324     0.333175    Uiso  ? Mn
   Mn8        1.0     0.367224     0.333448     0.332920    Uiso  ? Mn
   Mn9        1.0     0.628191     0.666620     0.667065    Uiso  ? Mn
