
#======================================================================
# CRYSTAL DATA
#----------------------------------------------------------------------
data_VESTA_phase_1

_chemical_name_common                  'Sm2 Co10                              '
_cell_length_a                         5.087421
_cell_length_b                         5.071760
_cell_length_c                         7.795582
_cell_angle_alpha                      90.000000
_cell_angle_beta                       90.000000
_cell_angle_gamma                      120.102211
_cell_volume                           174.015257
_space_group_name_H-M_alt              'P 1'
_space_group_IT_number                 1

loop_
_space_group_symop_operation_xyz
   'x, y, z'

loop_
   _atom_site_label
   _atom_site_occupancy
   _atom_site_fract_x
   _atom_site_fract_y
   _atom_site_fract_z
   _atom_site_adp_type
   _atom_site_U_iso_or_equiv
   _atom_site_type_symbol
   Sm1        1.0     0.000000     0.000000     0.998565    Uiso  ? Sm
   Sm2        1.0     0.000000     0.000000     0.501435    Uiso  ? Sm
   Co1        1.0     0.000000     0.500000     0.250000    Uiso  ? Co
   Co2        1.0     0.500000     0.500000     0.250000    Uiso  ? Co
   Co3        1.0     0.500000     0.000000     0.750000    Uiso  ? Co
   Co4        1.0     0.000000     0.500000     0.750000    Uiso  ? Co
   Co5        1.0     0.500000     0.500000     0.750000    Uiso  ? Co
   Fe1        1.0     0.332465     0.664931     0.501281    Uiso  ? Fe
   Fe2        1.0     0.667535     0.335069     0.998719    Uiso  ? Fe
   Fe3        1.0     0.667535     0.335069     0.501281    Uiso  ? Fe
   Fe4        1.0     0.332465     0.664931     0.998719    Uiso  ? Fe
   Fe5        1.0     0.500000     0.000000     0.250000    Uiso  ? Fe
