
#======================================================================
# CRYSTAL DATA
#----------------------------------------------------------------------
data_VESTA_phase_1

_chemical_name_common                  'Sm6 Co51                              '
_cell_length_a                         8.428477
_cell_length_b                         8.426444
_cell_length_c                         12.124461
_cell_angle_alpha                      89.998703
_cell_angle_beta                       90.000000
_cell_angle_gamma                      120.007988
_cell_volume                           745.678426
_space_group_name_H-M_alt              'P 1'
_space_group_IT_number                 1

loop_
_space_group_symop_operation_xyz
   'x, y, z'

loop_
   _atom_site_label
   _atom_site_occupancy
   _atom_site_fract_x
   _atom_site_fract_y
   _atom_site_fract_z
   _atom_site_adp_type
   _atom_site_U_iso_or_equiv
   _atom_site_type_symbol
   Sm1        1.0     0.333901     0.667803     0.008335    Uiso  ? Sm
   Sm2        1.0     0.666207     0.332413     0.990026    Uiso  ? Sm
   Sm3        1.0     0.333275     0.666551     0.326512    Uiso  ? Sm
   Sm4        1.0     0.000832     0.001665     0.342854    Uiso  ? Sm
   Sm5        1.0     0.999914     0.999827     0.657719    Uiso  ? Sm
   Sm6        1.0     0.666815     0.333629     0.676301    Uiso  ? Sm
   Co1        1.0     0.997650     0.995300     0.095574    Uiso  ? Co
   Co2        1.0     0.667252     0.334502     0.236425    Uiso  ? Co
   Co3        1.0     0.666700     0.333400     0.428574    Uiso  ? Co
   Co4        1.0     0.333417     0.666835     0.570726    Uiso  ? Co
   Co5        1.0     0.333733     0.667466     0.762329    Uiso  ? Co
   Co6        1.0     0.000907     0.001813     0.904330    Uiso  ? Co
   Co7        1.0     0.832465     0.164318     0.166385    Uiso  ? Co
   Co8        1.0     0.331852     0.164318     0.166385    Uiso  ? Co
   Co9        1.0     0.835953     0.671906     0.166986    Uiso  ? Co
   Co10       1.0     0.502811     0.498566     0.500409    Uiso  ? Co
   Co11       1.0     0.995755     0.498566     0.500409    Uiso  ? Co
   Co12       1.0     0.502128     0.004257     0.500355    Uiso  ? Co
   Co13       1.0     0.169071     0.338141     0.832703    Uiso  ? Co
   Co14       1.0     0.168596     0.830791     0.833370    Uiso  ? Co
   Co15       1.0     0.662196     0.830791     0.833370    Uiso  ? Co
   Co16       1.0     0.000587     0.716802     0.999197    Uiso  ? Co
   Co17       1.0     0.999694     0.281374     0.998280    Uiso  ? Co
   Co18       1.0     0.279760     0.997878     0.999808    Uiso  ? Co
   Co19       1.0     0.281680     0.281374     0.998280    Uiso  ? Co
   Co20       1.0     0.716215     0.716802     0.999197    Uiso  ? Co
   Co21       1.0     0.718119     0.997878     0.999808    Uiso  ? Co
   Co22       1.0     0.391325     0.331001     0.334736    Uiso  ? Co
   Co23       1.0     0.382329     0.048055     0.332702    Uiso  ? Co
   Co24       1.0     0.665727     0.048055     0.332702    Uiso  ? Co
   Co25       1.0     0.668611     0.618144     0.332849    Uiso  ? Co
   Co26       1.0     0.939677     0.331001     0.334736    Uiso  ? Co
   Co27       1.0     0.949534     0.618144     0.332849    Uiso  ? Co
   Co28       1.0     0.051372     0.665949     0.666496    Uiso  ? Co
   Co29       1.0     0.051049     0.385459     0.665823    Uiso  ? Co
   Co30       1.0     0.334527     0.949400     0.666532    Uiso  ? Co
   Co31       1.0     0.334409     0.385459     0.665823    Uiso  ? Co
   Co32       1.0     0.614575     0.665949     0.666496    Uiso  ? Co
   Co33       1.0     0.614872     0.949400     0.666532    Uiso  ? Co
   Co34       1.0     0.681942     0.840907     0.183450    Uiso  ? Co
   Co35       1.0     0.158966     0.840907     0.183450    Uiso  ? Co
   Co36       1.0     0.348861     0.174528     0.517202    Uiso  ? Co
   Co37       1.0     0.825716     0.651432     0.517088    Uiso  ? Co
   Co38       1.0     0.825666     0.174528     0.517202    Uiso  ? Co
   Co39       1.0     0.014920     0.507189     0.850072    Uiso  ? Co
   Co40       1.0     0.492220     0.984440     0.850048    Uiso  ? Co
   Co41       1.0     0.492269     0.507189     0.850072    Uiso  ? Co
   Cu1        1.0     0.501695     0.500041     0.150309    Uiso  ? Cu
   Cu2        1.0     0.166327     0.833950     0.484404    Uiso  ? Cu
   Cu3        1.0     0.833181     0.166369     0.817136    Uiso  ? Cu
   Cu4        1.0     0.499645     0.999291     0.150263    Uiso  ? Cu
   Cu5        1.0     0.166565     0.333128     0.483156    Uiso  ? Cu
   Cu6        1.0     0.833284     0.666569     0.817214    Uiso  ? Cu
   Cu7        1.0     0.998346     0.500041     0.150309    Uiso  ? Cu
   Cu8        1.0     0.667624     0.833950     0.484404    Uiso  ? Cu
   Cu9        1.0     0.333187     0.166369     0.817136    Uiso  ? Cu
   Cu10       1.0     0.164094     0.328188     0.184162    Uiso  ? Cu
