
#======================================================================
# CRYSTAL DATA
#----------------------------------------------------------------------
data_VESTA_phase_1

_chemical_name_common                  'Sm6 Co51                              '
_cell_length_a                         8.433464
_cell_length_b                         8.431630
_cell_length_c                         12.130186
_cell_angle_alpha                      90.007187
_cell_angle_beta                       90.000000
_cell_angle_gamma                      120.007202
_cell_volume                           746.937240
_space_group_name_H-M_alt              'P 1'
_space_group_IT_number                 1

loop_
_space_group_symop_operation_xyz
   'x, y, z'

loop_
   _atom_site_label
   _atom_site_occupancy
   _atom_site_fract_x
   _atom_site_fract_y
   _atom_site_fract_z
   _atom_site_adp_type
   _atom_site_U_iso_or_equiv
   _atom_site_type_symbol
   Sm1        1.0     0.334049     0.668099     0.008317    Uiso  ? Sm
   Sm2        1.0     0.666137     0.332273    -0.009854    Uiso  ? Sm
   Sm3        1.0     0.333122     0.666246     0.325606    Uiso  ? Sm
   Sm4        1.0     0.001259     0.002518     0.341366    Uiso  ? Sm
   Sm5        1.0    -0.000209    -0.000418     0.659888    Uiso  ? Sm
   Sm6        1.0     0.667674     0.335346     0.675945    Uiso  ? Sm
   Co1        1.0    -0.002089    -0.004177     0.095470    Uiso  ? Co
   Co2        1.0     0.668328     0.336655     0.236747    Uiso  ? Co
   Co3        1.0     0.663998     0.327996     0.428464    Uiso  ? Co
   Co4        1.0     0.334092     0.668186     0.570156    Uiso  ? Co
   Co5        1.0     0.333845     0.667691     0.761962    Uiso  ? Co
   Co6        1.0     0.001027     0.002053     0.904435    Uiso  ? Co
   Co7        1.0     0.832261     0.163853     0.166305    Uiso  ? Co
   Co8        1.0     0.331590     0.163853     0.166305    Uiso  ? Co
   Co9        1.0     0.836145     0.672291     0.166442    Uiso  ? Co
   Co10       1.0     0.499575     0.498323     0.499854    Uiso  ? Co
   Co11       1.0    -0.001252     0.498323     0.499854    Uiso  ? Co
   Co12       1.0     0.502425     0.004850     0.500837    Uiso  ? Co
   Co13       1.0     0.168927     0.337852     0.832653    Uiso  ? Co
   Co14       1.0     0.169194     0.831449     0.833788    Uiso  ? Co
   Co15       1.0     0.662255     0.831449     0.833788    Uiso  ? Co
   Co16       1.0     0.000463     0.716862    -0.001181    Uiso  ? Co
   Co17       1.0     0.000061     0.281745    -0.001544    Uiso  ? Co
   Co18       1.0     0.279441    -0.001910     0.000057    Uiso  ? Co
   Co19       1.0     0.281684     0.281745    -0.001544    Uiso  ? Co
   Co20       1.0     0.716399     0.716862    -0.001181    Uiso  ? Co
   Co21       1.0     0.718649    -0.001910     0.000057    Uiso  ? Co
   Co22       1.0     0.390994     0.329886     0.334759    Uiso  ? Co
   Co23       1.0     0.381414     0.047012     0.332475    Uiso  ? Co
   Co24       1.0     0.665598     0.047012     0.332475    Uiso  ? Co
   Co25       1.0     0.667025     0.616578     0.331631    Uiso  ? Co
   Co26       1.0     0.938893     0.329886     0.334759    Uiso  ? Co
   Co27       1.0     0.949554     0.616578     0.331631    Uiso  ? Co
   Co28       1.0     0.058322     0.664597     0.668112    Uiso  ? Co
   Co29       1.0     0.048886     0.381366     0.665572    Uiso  ? Co
   Co30       1.0     0.335500     0.951931     0.666625    Uiso  ? Co
   Co31       1.0     0.332479     0.381366     0.665572    Uiso  ? Co
   Co32       1.0     0.606273     0.664597     0.668112    Uiso  ? Co
   Co33       1.0     0.616430     0.951931     0.666625    Uiso  ? Co
   Co34       1.0     0.681708     0.840611     0.183493    Uiso  ? Co
   Co35       1.0     0.158904     0.840611     0.183493    Uiso  ? Co
   Co36       1.0     0.348906     0.174475     0.517317    Uiso  ? Co
   Co37       1.0     0.825568     0.174475     0.517317    Uiso  ? Co
   Co38       1.0     0.015404     0.507601     0.850450    Uiso  ? Co
   Co39       1.0     0.492222     0.984445     0.850387    Uiso  ? Co
   Co40       1.0     0.492197     0.507601     0.850450    Uiso  ? Co
   Cu1        1.0     0.501654     0.499684     0.150174    Uiso  ? Cu
   Cu2        1.0     0.168213     0.833936     0.484239    Uiso  ? Cu
   Cu3        1.0     0.832944     0.166901     0.817759    Uiso  ? Cu
   Cu4        1.0     0.499775    -0.000450     0.150358    Uiso  ? Cu
   Cu5        1.0     0.166347     0.332692     0.482946    Uiso  ? Cu
   Cu6        1.0     0.833270     0.666541     0.816509    Uiso  ? Cu
   Cu7        1.0     0.998030     0.499684     0.150174    Uiso  ? Cu
   Cu8        1.0     0.665724     0.833936     0.484239    Uiso  ? Cu
   Cu9        1.0     0.333956     0.166901     0.817759    Uiso  ? Cu
   Cu10       1.0     0.163951     0.327900     0.183990    Uiso  ? Cu
   Cu11       1.0     0.830807     0.661616     0.517608    Uiso  ? Cu
