
#======================================================================
# CRYSTAL DATA
#----------------------------------------------------------------------
data_VESTA_phase_1

_chemical_name_common                  'Sm6 Co51                              '
_cell_length_a                         8.438117
_cell_length_b                         8.439302
_cell_length_c                         12.137957
_cell_angle_alpha                      90.027672
_cell_angle_beta                       90.000000
_cell_angle_gamma                      119.995354
_cell_volume                           748.597844
_space_group_name_H-M_alt              'P 1'
_space_group_IT_number                 1

loop_
_space_group_symop_operation_xyz
   'x, y, z'

loop_
   _atom_site_label
   _atom_site_occupancy
   _atom_site_fract_x
   _atom_site_fract_y
   _atom_site_fract_z
   _atom_site_adp_type
   _atom_site_U_iso_or_equiv
   _atom_site_type_symbol
   Sm1        1.0     0.334735     0.669470     0.008045    Uiso  ? Sm
   Sm2        1.0     0.666384     0.332767    -0.007551    Uiso  ? Sm
   Sm3        1.0     0.333076     0.666154     0.325822    Uiso  ? Sm
   Sm4        1.0     0.001422     0.002844     0.341352    Uiso  ? Sm
   Sm5        1.0    -0.000289    -0.000579     0.659147    Uiso  ? Sm
   Sm6        1.0     0.668047     0.336092     0.674631    Uiso  ? Sm
   Co1        1.0    -0.002290    -0.004579     0.095123    Uiso  ? Co
   Co2        1.0     0.668535     0.337070     0.236899    Uiso  ? Co
   Co3        1.0     0.664396     0.328791     0.428405    Uiso  ? Co
   Co4        1.0     0.335152     0.670304     0.570276    Uiso  ? Co
   Co5        1.0     0.331055     0.662111     0.761805    Uiso  ? Co
   Co6        1.0     0.001920     0.003840     0.903699    Uiso  ? Co
   Co7        1.0     0.832875     0.164365     0.166493    Uiso  ? Co
   Co8        1.0     0.331489     0.164365     0.166493    Uiso  ? Co
   Co9        1.0     0.835882     0.671765     0.166575    Uiso  ? Co
   Co10       1.0     0.499476     0.497885     0.499859    Uiso  ? Co
   Co11       1.0    -0.001591     0.497885     0.499859    Uiso  ? Co
   Co12       1.0     0.502581     0.005161     0.499886    Uiso  ? Co
   Co13       1.0     0.169198     0.338394     0.833160    Uiso  ? Co
   Co14       1.0     0.166132     0.831021     0.833242    Uiso  ? Co
   Co15       1.0     0.664890     0.831021     0.833242    Uiso  ? Co
   Co16       1.0    -0.001026     0.713700    -0.001152    Uiso  ? Co
   Co17       1.0     0.000684     0.283566    -0.001397    Uiso  ? Co
   Co18       1.0     0.272343    -0.003324     0.001465    Uiso  ? Co
   Co19       1.0     0.282883     0.283566    -0.001397    Uiso  ? Co
   Co20       1.0     0.714725     0.713700    -0.001152    Uiso  ? Co
   Co21       1.0     0.724333    -0.003324     0.001465    Uiso  ? Co
   Co22       1.0     0.391173     0.330081     0.334835    Uiso  ? Co
   Co23       1.0     0.381547     0.047205     0.332158    Uiso  ? Co
   Co24       1.0     0.665659     0.047205     0.332158    Uiso  ? Co
   Co25       1.0     0.667366     0.616875     0.332019    Uiso  ? Co
   Co26       1.0     0.938910     0.330081     0.334835    Uiso  ? Co
   Co27       1.0     0.949510     0.616875     0.332019    Uiso  ? Co
   Co28       1.0     0.057646     0.663314     0.668132    Uiso  ? Co
   Co29       1.0     0.048136     0.380471     0.665501    Uiso  ? Co
   Co30       1.0     0.333958     0.950010     0.665330    Uiso  ? Co
   Co31       1.0     0.332334     0.380471     0.665501    Uiso  ? Co
   Co32       1.0     0.605667     0.663314     0.668132    Uiso  ? Co
   Co33       1.0     0.616051     0.950010     0.665330    Uiso  ? Co
   Co34       1.0     0.682059     0.840869     0.183881    Uiso  ? Co
   Co35       1.0     0.158810     0.840869     0.183881    Uiso  ? Co
   Co36       1.0     0.348835     0.174290     0.517253    Uiso  ? Co
   Co37       1.0     0.825454     0.174290     0.517253    Uiso  ? Co
   Co38       1.0     0.015484     0.507561     0.850475    Uiso  ? Co
   Co39       1.0     0.492077     0.507561     0.850475    Uiso  ? Co
   Cu1        1.0     0.501348     0.500214     0.150852    Uiso  ? Cu
   Cu2        1.0     0.168093     0.833599     0.484106    Uiso  ? Cu
   Cu3        1.0     0.834693     0.166837     0.817448    Uiso  ? Cu
   Cu4        1.0     0.499806    -0.000388     0.149756    Uiso  ? Cu
   Cu5        1.0     0.166460     0.332919     0.483059    Uiso  ? Cu
   Cu6        1.0     0.833119     0.666238     0.816411    Uiso  ? Cu
   Cu7        1.0    -0.001134     0.500214     0.150852    Uiso  ? Cu
   Cu8        1.0     0.665507     0.833599     0.484106    Uiso  ? Cu
   Cu9        1.0     0.332143     0.166837     0.817448    Uiso  ? Cu
   Cu10       1.0     0.164097     0.328193     0.184126    Uiso  ? Cu
   Cu11       1.0     0.830744     0.661489     0.517532    Uiso  ? Cu
   Cu12       1.0     0.497432     0.994864     0.850839    Uiso  ? Cu
