
#======================================================================
# CRYSTAL DATA
#----------------------------------------------------------------------
data_VESTA_phase_1

_chemical_name_common                  'Sm6 Co51                              '
_cell_length_a                         8.448255
_cell_length_b                         8.443488
_cell_length_c                         12.143370
_cell_angle_alpha                      90.021141
_cell_angle_beta                       89.994087
_cell_angle_gamma                      119.979080
_cell_volume                           750.326383
_space_group_name_H-M_alt              'P 1'
_space_group_IT_number                 1

loop_
_space_group_symop_operation_xyz
   'x, y, z'

loop_
   _atom_site_label
   _atom_site_occupancy
   _atom_site_fract_x
   _atom_site_fract_y
   _atom_site_fract_z
   _atom_site_adp_type
   _atom_site_U_iso_or_equiv
   _atom_site_type_symbol
   Sm1        1.0     0.335922     0.669491     0.006666    Uiso  ? Sm
   Sm2        1.0     0.665936     0.332956    -0.008222    Uiso  ? Sm
   Sm3        1.0     0.332563     0.666252     0.327988    Uiso  ? Sm
   Sm4        1.0     0.003372     0.002189     0.340779    Uiso  ? Sm
   Sm5        1.0    -0.000324    -0.000688     0.659370    Uiso  ? Sm
   Sm6        1.0     0.667993     0.336026     0.674662    Uiso  ? Sm
   Co1        1.0    -0.005280    -0.002424     0.095273    Uiso  ? Co
   Co2        1.0     0.667818     0.335445     0.236710    Uiso  ? Co
   Co3        1.0     0.663836     0.328714     0.428437    Uiso  ? Co
   Co4        1.0     0.335336     0.670342     0.570618    Uiso  ? Co
   Co5        1.0     0.331426     0.661643     0.761692    Uiso  ? Co
   Co6        1.0     0.002453     0.002476     0.904337    Uiso  ? Co
   Co7        1.0     0.833096     0.163847     0.166846    Uiso  ? Co
   Co8        1.0     0.333127     0.166802     0.165892    Uiso  ? Co
   Co9        1.0     0.832574     0.668904     0.165993    Uiso  ? Co
   Co10       1.0     0.499171     0.498160     0.500205    Uiso  ? Co
   Co11       1.0    -0.001495     0.497654     0.500270    Uiso  ? Co
   Co12       1.0     0.503408     0.005186     0.500367    Uiso  ? Co
   Co13       1.0     0.168925     0.338543     0.833142    Uiso  ? Co
   Co14       1.0     0.166444     0.830751     0.832472    Uiso  ? Co
   Co15       1.0     0.664686     0.830946     0.833374    Uiso  ? Co
   Co16       1.0    -0.002083     0.713909    -0.002325    Uiso  ? Co
   Co17       1.0     0.000467     0.284726    -0.001431    Uiso  ? Co
   Co18       1.0     0.272491    -0.001843    -0.000026    Uiso  ? Co
   Co19       1.0     0.281251     0.283000    -0.001306    Uiso  ? Co
   Co20       1.0     0.715998     0.715683    -0.001126    Uiso  ? Co
   Co21       1.0     0.723737    -0.002094     0.000964    Uiso  ? Co
   Co22       1.0     0.390434     0.333032     0.334632    Uiso  ? Co
   Co23       1.0     0.390157     0.056273     0.333801    Uiso  ? Co
   Co24       1.0     0.666437     0.044969     0.332337    Uiso  ? Co
   Co25       1.0     0.665573     0.619263     0.331918    Uiso  ? Co
   Co26       1.0     0.939262     0.328517     0.334948    Uiso  ? Co
   Co27       1.0     0.939809     0.608526     0.333522    Uiso  ? Co
   Co28       1.0     0.058052     0.663078     0.667690    Uiso  ? Co
   Co29       1.0     0.047943     0.379925     0.665715    Uiso  ? Co
   Co30       1.0     0.333913     0.950350     0.665064    Uiso  ? Co
   Co31       1.0     0.332419     0.380299     0.665860    Uiso  ? Co
   Co32       1.0     0.605855     0.663099     0.668393    Uiso  ? Co
   Co33       1.0     0.616169     0.949862     0.665686    Uiso  ? Co
   Co34       1.0     0.682264     0.841030     0.184143    Uiso  ? Co
   Co35       1.0     0.349129     0.174246     0.517151    Uiso  ? Co
   Co36       1.0     0.825937     0.174386     0.517593    Uiso  ? Co
   Co37       1.0     0.015355     0.507671     0.850391    Uiso  ? Co
   Co38       1.0     0.491984     0.507646     0.850695    Uiso  ? Co
   Cu1        1.0     0.501216     0.500286     0.150300    Uiso  ? Cu
   Cu2        1.0     0.168457     0.833707     0.483288    Uiso  ? Cu
   Cu3        1.0     0.834828     0.166773     0.817516    Uiso  ? Cu
   Cu4        1.0     0.501951     0.002091     0.149504    Uiso  ? Cu
   Cu5        1.0     0.166211     0.332199     0.483392    Uiso  ? Cu
   Cu6        1.0     0.833218     0.666567     0.816163    Uiso  ? Cu
   Cu7        1.0     0.996105     0.497926     0.150329    Uiso  ? Cu
   Cu8        1.0     0.666291     0.833947     0.484765    Uiso  ? Cu
   Cu9        1.0     0.331867     0.166969     0.817443    Uiso  ? Cu
   Cu10       1.0     0.164376     0.329421     0.184023    Uiso  ? Cu
   Cu11       1.0     0.830615     0.661460     0.517741    Uiso  ? Cu
   Cu12       1.0     0.497368     0.995014     0.850456    Uiso  ? Cu
   Cu13       1.0     0.163956     0.834870     0.183921    Uiso  ? Cu
