
#======================================================================
# CRYSTAL DATA
#----------------------------------------------------------------------
data_VESTA_phase_1

_chemical_name_common                  'Sm6 Co51                              '
_cell_length_a                         8.455270
_cell_length_b                         8.445045
_cell_length_c                         12.152536
_cell_angle_alpha                      90.007103
_cell_angle_beta                       89.996948
_cell_angle_gamma                      119.959312
_cell_volume                           751.804523
_space_group_name_H-M_alt              'P 1'
_space_group_IT_number                 1

loop_
_space_group_symop_operation_xyz
   'x, y, z'

loop_
   _atom_site_label
   _atom_site_occupancy
   _atom_site_fract_x
   _atom_site_fract_y
   _atom_site_fract_z
   _atom_site_adp_type
   _atom_site_U_iso_or_equiv
   _atom_site_type_symbol
   Sm1        1.0     0.335845     0.669327     0.006601    Uiso  ? Sm
   Sm2        1.0     0.666105     0.333121     0.992088    Uiso  ? Sm
   Sm3        1.0     0.332686     0.666406     0.327512    Uiso  ? Sm
   Sm4        1.0     0.004237     0.002252     0.339278    Uiso  ? Sm
   Sm5        1.0     0.999196     0.999593     0.661676    Uiso  ? Sm
   Sm6        1.0     0.670001     0.335343     0.673991    Uiso  ? Sm
   Co1        1.0     0.994549     0.997068     0.095166    Uiso  ? Co
   Co2        1.0     0.668583     0.334546     0.237300    Uiso  ? Co
   Co3        1.0     0.660527     0.330880     0.428510    Uiso  ? Co
   Co4        1.0     0.334440     0.668503     0.570508    Uiso  ? Co
   Co5        1.0     0.331094     0.661562     0.761713    Uiso  ? Co
   Co6        1.0     0.002731     0.002453     0.904542    Uiso  ? Co
   Co7        1.0     0.833404     0.163654     0.166257    Uiso  ? Co
   Co8        1.0     0.333219     0.166808     0.165983    Uiso  ? Co
   Co9        1.0     0.832295     0.668943     0.166032    Uiso  ? Co
   Co10       1.0     0.499359     0.497635     0.500671    Uiso  ? Co
   Co11       1.0     0.999759     0.499864     0.499601    Uiso  ? Co
   Co12       1.0     0.499895     0.002113     0.499784    Uiso  ? Co
   Co13       1.0     0.169745     0.338644     0.833743    Uiso  ? Co
   Co14       1.0     0.166123     0.831093     0.832682    Uiso  ? Co
   Co15       1.0     0.664649     0.830738     0.833929    Uiso  ? Co
   Co16       1.0     0.998070     0.714030     0.997972    Uiso  ? Co
   Co17       1.0     0.000359     0.284737     0.998253    Uiso  ? Co
   Co18       1.0     0.272719     0.997925     0.000245    Uiso  ? Co
   Co19       1.0     0.281317     0.282606     0.998992    Uiso  ? Co
   Co20       1.0     0.715986     0.715483     0.999115    Uiso  ? Co
   Co21       1.0     0.723846     0.997819     0.000568    Uiso  ? Co
   Co22       1.0     0.389641     0.333552     0.334304    Uiso  ? Co
   Co23       1.0     0.390092     0.056998     0.333870    Uiso  ? Co
   Co24       1.0     0.665297     0.045698     0.331333    Uiso  ? Co
   Co25       1.0     0.665589     0.619680     0.331984    Uiso  ? Co
   Co26       1.0     0.939629     0.330493     0.333376    Uiso  ? Co
   Co27       1.0     0.939765     0.609476     0.333523    Uiso  ? Co
   Co28       1.0     0.057287     0.666020     0.667499    Uiso  ? Co
   Co29       1.0     0.056690     0.389144     0.667271    Uiso  ? Co
   Co30       1.0     0.332124     0.952928     0.664944    Uiso  ? Co
   Co31       1.0     0.333432     0.378191     0.666079    Uiso  ? Co
   Co32       1.0     0.606564     0.661665     0.668549    Uiso  ? Co
   Co33       1.0     0.606389     0.941605     0.667131    Uiso  ? Co
   Co34       1.0     0.682188     0.841149     0.184040    Uiso  ? Co
   Co35       1.0     0.349255     0.174478     0.517494    Uiso  ? Co
   Co36       1.0     0.015814     0.507692     0.850123    Uiso  ? Co
   Co37       1.0     0.492464     0.507716     0.850876    Uiso  ? Co
   Cu1        1.0     0.501277     0.500156     0.150459    Uiso  ? Cu
   Cu2        1.0     0.168150     0.833710     0.482962    Uiso  ? Cu
   Cu3        1.0     0.835124     0.166857     0.816734    Uiso  ? Cu
   Cu4        1.0     0.501938     0.002151     0.149376    Uiso  ? Cu
   Cu5        1.0     0.168220     0.334570     0.483288    Uiso  ? Cu
   Cu6        1.0     0.832905     0.665743     0.816543    Uiso  ? Cu
   Cu7        1.0     0.996025     0.498072     0.150352    Uiso  ? Cu
   Cu8        1.0     0.663570     0.831601     0.484319    Uiso  ? Cu
   Cu9        1.0     0.332715     0.167337     0.818074    Uiso  ? Cu
   Cu10       1.0     0.164374     0.329554     0.183501    Uiso  ? Cu
   Cu11       1.0     0.830809     0.662616     0.517586    Uiso  ? Cu
   Cu12       1.0     0.497235     0.995143     0.850641    Uiso  ? Cu
   Cu13       1.0     0.163840     0.834797     0.183639    Uiso  ? Cu
   Cu14       1.0     0.830859     0.168065     0.517417    Uiso  ? Cu
