
#======================================================================
# CRYSTAL DATA
#----------------------------------------------------------------------
data_VESTA_phase_1

_chemical_name_common                  'Sm6 Co51                              '
_cell_length_a                         8.464955
_cell_length_b                         8.449108
_cell_length_c                         12.163176
_cell_angle_alpha                      90.000000
_cell_angle_beta                       90.009727
_cell_angle_gamma                      119.938087
_cell_volume                           753.847926
_space_group_name_H-M_alt              'P 1'
_space_group_IT_number                 1

loop_
_space_group_symop_operation_xyz
   'x, y, z'

loop_
   _atom_site_label
   _atom_site_occupancy
   _atom_site_fract_x
   _atom_site_fract_y
   _atom_site_fract_z
   _atom_site_adp_type
   _atom_site_U_iso_or_equiv
   _atom_site_type_symbol
   Sm1        1.0     0.337866     0.668933     0.005931    Uiso  ? Sm
   Sm2        1.0     0.665666     0.332833    -0.005607    Uiso  ? Sm
   Sm3        1.0     0.332355     0.666178     0.327770    Uiso  ? Sm
   Sm4        1.0     0.004472     0.002236     0.339229    Uiso  ? Sm
   Sm5        1.0    -0.000959    -0.000479     0.661038    Uiso  ? Sm
   Sm6        1.0     0.671206     0.335602     0.672489    Uiso  ? Sm
   Co1        1.0    -0.006000    -0.003000     0.095162    Uiso  ? Co
   Co2        1.0     0.668803     0.334401     0.237376    Uiso  ? Co
   Co3        1.0     0.660693     0.330346     0.428367    Uiso  ? Co
   Co4        1.0     0.335290     0.667646     0.570912    Uiso  ? Co
   Co5        1.0     0.327363     0.663682     0.761900    Uiso  ? Co
   Co6        1.0     0.002316     0.001158     0.904191    Uiso  ? Co
   Co7        1.0     0.832982     0.164006     0.166384    Uiso  ? Co
   Co8        1.0     0.332949     0.166475     0.166261    Uiso  ? Co
   Co9        1.0     0.832982     0.668977     0.166384    Uiso  ? Co
   Co10       1.0     0.499614     0.497468     0.499730    Uiso  ? Co
   Co11       1.0    -0.000129     0.499935     0.499684    Uiso  ? Co
   Co12       1.0     0.499614     0.002146     0.499730    Uiso  ? Co
   Co13       1.0     0.166328     0.335669     0.833118    Uiso  ? Co
   Co14       1.0     0.166328     0.830658     0.833118    Uiso  ? Co
   Co15       1.0     0.666379     0.833189     0.833043    Uiso  ? Co
   Co16       1.0    -0.001204     0.711761    -0.001636    Uiso  ? Co
   Co17       1.0    -0.001204     0.287035    -0.001636    Uiso  ? Co
   Co18       1.0     0.272738    -0.003175     0.000413    Uiso  ? Co
   Co19       1.0     0.272738     0.275913     0.000413    Uiso  ? Co
   Co20       1.0     0.723683     0.723546     0.000569    Uiso  ? Co
   Co21       1.0     0.723683     0.000137     0.000569    Uiso  ? Co
   Co22       1.0     0.390337     0.333459     0.333891    Uiso  ? Co
   Co23       1.0     0.390337     0.056877     0.333891    Uiso  ? Co
   Co24       1.0     0.665515     0.045234     0.331691    Uiso  ? Co
   Co25       1.0     0.665515     0.620280     0.331691    Uiso  ? Co
   Co26       1.0     0.939419     0.330229     0.333763    Uiso  ? Co
   Co27       1.0     0.939419     0.609189     0.333763    Uiso  ? Co
   Co28       1.0     0.057064     0.666869     0.667275    Uiso  ? Co
   Co29       1.0     0.057064     0.390196     0.667275    Uiso  ? Co
   Co30       1.0     0.332267     0.953860     0.665023    Uiso  ? Co
   Co31       1.0     0.332267     0.378408     0.665023    Uiso  ? Co
   Co32       1.0     0.606007     0.663526     0.667113    Uiso  ? Co
   Co33       1.0     0.606007     0.942482     0.667113    Uiso  ? Co
   Co34       1.0     0.682345     0.841172     0.184070    Uiso  ? Co
   Co35       1.0     0.349313     0.174657     0.517388    Uiso  ? Co
   Co36       1.0     0.015808     0.507904     0.850724    Uiso  ? Co
   Cu1        1.0     0.501582     0.500172     0.149691    Uiso  ? Cu
   Cu2        1.0     0.168289     0.833621     0.483070    Uiso  ? Cu
   Cu3        1.0     0.834922     0.166884     0.816391    Uiso  ? Cu
   Cu4        1.0     0.501582     0.001410     0.149691    Uiso  ? Cu
   Cu5        1.0     0.168289     0.334667     0.483070    Uiso  ? Cu
   Cu6        1.0     0.834922     0.668039     0.816391    Uiso  ? Cu
   Cu7        1.0     0.996836     0.498418     0.151089    Uiso  ? Cu
   Cu8        1.0     0.663515     0.831757     0.484372    Uiso  ? Cu
   Cu9        1.0     0.330166     0.165084     0.817739    Uiso  ? Cu
   Cu10       1.0     0.164124     0.329498     0.183949    Uiso  ? Cu
   Cu11       1.0     0.830756     0.662718     0.517303    Uiso  ? Cu
   Cu12       1.0     0.497452     0.996127     0.850697    Uiso  ? Cu
   Cu13       1.0     0.164124     0.834624     0.183949    Uiso  ? Cu
   Cu14       1.0     0.830756     0.168038     0.517303    Uiso  ? Cu
   Cu15       1.0     0.497452     0.501325     0.850697    Uiso  ? Cu
