
#======================================================================
# CRYSTAL DATA
#----------------------------------------------------------------------
data_VESTA_phase_1

_chemical_name_common                  'Sm6 Co51                              '
_cell_length_a                         8.469147
_cell_length_b                         8.459253
_cell_length_c                         12.166336
_cell_angle_alpha                      90.000000
_cell_angle_beta                       90.010269
_cell_angle_gamma                      119.961365
_cell_volume                           755.146239
_space_group_name_H-M_alt              'P 1'
_space_group_IT_number                 1

loop_
_space_group_symop_operation_xyz
   'x, y, z'

loop_
   _atom_site_label
   _atom_site_occupancy
   _atom_site_fract_x
   _atom_site_fract_y
   _atom_site_fract_z
   _atom_site_adp_type
   _atom_site_U_iso_or_equiv
   _atom_site_type_symbol
   Sm1        1.0     0.336832     0.668416     0.004576    Uiso  ? Sm
   Sm2        1.0     0.666311     0.333155    -0.006101    Uiso  ? Sm
   Sm3        1.0     0.333424     0.666713     0.329950    Uiso  ? Sm
   Sm4        1.0     0.000787     0.000393     0.338442    Uiso  ? Sm
   Sm5        1.0    -0.001304    -0.000652     0.661499    Uiso  ? Sm
   Sm6        1.0     0.671180     0.335589     0.672514    Uiso  ? Sm
   Co1        1.0    -0.000981    -0.000491     0.095549    Uiso  ? Co
   Co2        1.0     0.668863     0.334431     0.237335    Uiso  ? Co
   Co3        1.0     0.661734     0.330866     0.428180    Uiso  ? Co
   Co4        1.0     0.335346     0.667674     0.571144    Uiso  ? Co
   Co5        1.0     0.326466     0.663234     0.761745    Uiso  ? Co
   Co6        1.0     0.000410     0.000205     0.904920    Uiso  ? Co
   Co7        1.0     0.833764     0.167007     0.165871    Uiso  ? Co
   Co8        1.0     0.332255     0.166128     0.166909    Uiso  ? Co
   Co9        1.0     0.833764     0.666758     0.165871    Uiso  ? Co
   Co10       1.0     0.499168     0.497095     0.500410    Uiso  ? Co
   Co11       1.0     0.000292     0.500146     0.500178    Uiso  ? Co
   Co12       1.0     0.499168     0.002073     0.500410    Uiso  ? Co
   Co13       1.0     0.166661     0.335903     0.833312    Uiso  ? Co
   Co14       1.0     0.166661     0.830757     0.833312    Uiso  ? Co
   Co15       1.0     0.666341     0.833170     0.832430    Uiso  ? Co
   Co16       1.0    -0.000164     0.713593    -0.001628    Uiso  ? Co
   Co17       1.0    -0.000164     0.286242    -0.001628    Uiso  ? Co
   Co18       1.0     0.274103    -0.002219     0.000245    Uiso  ? Co
   Co19       1.0     0.274103     0.276323     0.000245    Uiso  ? Co
   Co20       1.0     0.725298     0.723916    -0.000634    Uiso  ? Co
   Co21       1.0     0.725298     0.001382    -0.000634    Uiso  ? Co
   Co22       1.0     0.387466     0.331861     0.334258    Uiso  ? Co
   Co23       1.0     0.387466     0.055605     0.334258    Uiso  ? Co
   Co24       1.0     0.665822     0.055660     0.333039    Uiso  ? Co
   Co25       1.0     0.665822     0.610161     0.333039    Uiso  ? Co
   Co26       1.0     0.943452     0.332796     0.333626    Uiso  ? Co
   Co27       1.0     0.943452     0.610655     0.333626    Uiso  ? Co
   Co28       1.0     0.056837     0.666721     0.667493    Uiso  ? Co
   Co29       1.0     0.056837     0.390117     0.667493    Uiso  ? Co
   Co30       1.0     0.331816     0.954199     0.665201    Uiso  ? Co
   Co31       1.0     0.331816     0.377617     0.665201    Uiso  ? Co
   Co32       1.0     0.605681     0.663532     0.666891    Uiso  ? Co
   Co33       1.0     0.605681     0.942150     0.666891    Uiso  ? Co
   Co34       1.0     0.348424     0.174213     0.517363    Uiso  ? Co
   Co35       1.0     0.016045     0.508023     0.850999    Uiso  ? Co
   Cu1        1.0     0.501991     0.497829     0.149203    Uiso  ? Cu
   Cu2        1.0     0.167799     0.833798     0.483417    Uiso  ? Cu
   Cu3        1.0     0.835209     0.167131     0.816394    Uiso  ? Cu
   Cu4        1.0     0.501991     0.004163     0.149203    Uiso  ? Cu
   Cu5        1.0     0.167799     0.334000     0.483417    Uiso  ? Cu
   Cu6        1.0     0.835209     0.668079     0.816394    Uiso  ? Cu
   Cu7        1.0     0.997534     0.498767     0.150448    Uiso  ? Cu
   Cu8        1.0     0.663162     0.831580     0.483297    Uiso  ? Cu
   Cu9        1.0     0.329992     0.164997     0.817958    Uiso  ? Cu
   Cu10       1.0     0.164955     0.330371     0.183752    Uiso  ? Cu
   Cu11       1.0     0.830806     0.662693     0.517285    Uiso  ? Cu
   Cu12       1.0     0.497718     0.996279     0.850374    Uiso  ? Cu
   Cu13       1.0     0.164955     0.834583     0.183752    Uiso  ? Cu
   Cu14       1.0     0.830806     0.168113     0.517285    Uiso  ? Cu
   Cu15       1.0     0.497718     0.501440     0.850374    Uiso  ? Cu
   Cu16       1.0     0.670120     0.835060     0.183650    Uiso  ? Cu
