
#======================================================================
# CRYSTAL DATA
#----------------------------------------------------------------------
data_VESTA_phase_1

_chemical_name_common                  'Sm6 Co51                              '
_cell_length_a                         8.473845
_cell_length_b                         8.469189
_cell_length_c                         12.174370
_cell_angle_alpha                      90.000000
_cell_angle_beta                       90.011345
_cell_angle_gamma                      119.981827
_cell_volume                           756.796146
_space_group_name_H-M_alt              'P 1'
_space_group_IT_number                 1

loop_
_space_group_symop_operation_xyz
   'x, y, z'

loop_
   _atom_site_label
   _atom_site_occupancy
   _atom_site_fract_x
   _atom_site_fract_y
   _atom_site_fract_z
   _atom_site_adp_type
   _atom_site_U_iso_or_equiv
   _atom_site_type_symbol
   Sm1        1.0     0.336095     0.668048     0.004364    Uiso  ? Sm
   Sm2        1.0     0.666400     0.333200    -0.005617    Uiso  ? Sm
   Sm3        1.0     0.333562     0.666781     0.329397    Uiso  ? Sm
   Sm4        1.0     0.000203     0.000101     0.336920    Uiso  ? Sm
   Sm5        1.0    -0.000026    -0.000013     0.663605    Uiso  ? Sm
   Sm6        1.0     0.667538     0.333768     0.671765    Uiso  ? Sm
   Co1        1.0    -0.001380    -0.000690     0.095525    Uiso  ? Co
   Co2        1.0     0.666719     0.333359     0.237869    Uiso  ? Co
   Co3        1.0     0.667218     0.333608     0.428555    Uiso  ? Co
   Co4        1.0     0.335382     0.667692     0.570900    Uiso  ? Co
   Co5        1.0     0.327445     0.663723     0.761591    Uiso  ? Co
   Co6        1.0    -0.000070    -0.000035     0.905158    Uiso  ? Co
   Co7        1.0     0.833667     0.166996     0.166066    Uiso  ? Co
   Co8        1.0     0.332402     0.166201     0.166471    Uiso  ? Co
   Co9        1.0     0.833667     0.666671     0.166066    Uiso  ? Co
   Co10       1.0     0.499984     0.500015     0.499812    Uiso  ? Co
   Co11       1.0    -0.000151     0.499925     0.500605    Uiso  ? Co
   Co12       1.0     0.499984    -0.000031     0.499812    Uiso  ? Co
   Co13       1.0     0.166288     0.335751     0.833998    Uiso  ? Co
   Co14       1.0     0.166288     0.830537     0.833998    Uiso  ? Co
   Co15       1.0     0.667016     0.833508     0.832624    Uiso  ? Co
   Co16       1.0    -0.000711     0.713863    -0.001459    Uiso  ? Co
   Co17       1.0    -0.000711     0.285426    -0.001459    Uiso  ? Co
   Co18       1.0     0.274432    -0.001834    -0.000083    Uiso  ? Co
   Co19       1.0     0.274432     0.276266    -0.000083    Uiso  ? Co
   Co20       1.0     0.724386     0.723470    -0.000319    Uiso  ? Co
   Co21       1.0     0.724386     0.000916    -0.000319    Uiso  ? Co
   Co22       1.0     0.389364     0.333433     0.333112    Uiso  ? Co
   Co23       1.0     0.389364     0.055929     0.333112    Uiso  ? Co
   Co24       1.0     0.667054     0.056239     0.333175    Uiso  ? Co
   Co25       1.0     0.667054     0.610815     0.333175    Uiso  ? Co
   Co26       1.0     0.944458     0.333340     0.333533    Uiso  ? Co
   Co27       1.0     0.944458     0.611117     0.333533    Uiso  ? Co
   Co28       1.0     0.054001     0.665112     0.667904    Uiso  ? Co
   Co29       1.0     0.054001     0.388890     0.667904    Uiso  ? Co
   Co30       1.0     0.332345     0.943554     0.666640    Uiso  ? Co
   Co31       1.0     0.332345     0.388792     0.666640    Uiso  ? Co
   Co32       1.0     0.609956     0.666078     0.666690    Uiso  ? Co
   Co33       1.0     0.609956     0.943879     0.666690    Uiso  ? Co
   Co34       1.0     0.014976     0.507488     0.851112    Uiso  ? Co
   Cu1        1.0     0.501892     0.498077     0.149257    Uiso  ? Cu
   Cu2        1.0     0.168171     0.831617     0.482846    Uiso  ? Cu
   Cu3        1.0     0.834699     0.167210     0.816644    Uiso  ? Cu
   Cu4        1.0     0.501892     0.003815     0.149257    Uiso  ? Cu
   Cu5        1.0     0.168171     0.336552     0.482846    Uiso  ? Cu
   Cu6        1.0     0.834699     0.667490     0.816644    Uiso  ? Cu
   Cu7        1.0     0.997121     0.498561     0.150454    Uiso  ? Cu
   Cu8        1.0     0.663914     0.831957     0.482696    Uiso  ? Cu
   Cu9        1.0     0.329892     0.164947     0.816699    Uiso  ? Cu
   Cu10       1.0     0.164944     0.330295     0.183497    Uiso  ? Cu
   Cu11       1.0     0.831745     0.663595     0.517361    Uiso  ? Cu
   Cu12       1.0     0.497879     0.996337     0.850463    Uiso  ? Cu
   Cu13       1.0     0.164944     0.834648     0.183497    Uiso  ? Cu
   Cu14       1.0     0.831745     0.168151     0.517361    Uiso  ? Cu
   Cu15       1.0     0.497879     0.501543     0.850463    Uiso  ? Cu
   Cu16       1.0     0.670200     0.835099     0.183601    Uiso  ? Cu
   Cu17       1.0     0.336436     0.168219     0.517431    Uiso  ? Cu
