
#======================================================================
# CRYSTAL DATA
#----------------------------------------------------------------------
data_VESTA_phase_1

_chemical_name_common                  'Sm6 Co51                              '
_cell_length_a                         8.480178
_cell_length_b                         8.480178
_cell_length_c                         12.178446
_cell_angle_alpha                      90.000000
_cell_angle_beta                       90.000000
_cell_angle_gamma                      120.000000
_cell_volume                           758.459550
_space_group_name_H-M_alt              'P 1'
_space_group_IT_number                 1

loop_
_space_group_symop_operation_xyz
   'x, y, z'

loop_
   _atom_site_label
   _atom_site_occupancy
   _atom_site_fract_x
   _atom_site_fract_y
   _atom_site_fract_z
   _atom_site_adp_type
   _atom_site_U_iso_or_equiv
   _atom_site_type_symbol
   Sm1        1.0     0.333333     0.666667     0.003380    Uiso  ? Sm
   Sm2        1.0     0.666667     0.333333     0.996620    Uiso  ? Sm
   Sm3        1.0     0.333333     0.666667     0.329841    Uiso  ? Sm
   Sm4        1.0     0.000000     0.000000     0.336735    Uiso  ? Sm
   Sm5        1.0     0.000000     0.000000     0.663265    Uiso  ? Sm
   Sm6        1.0     0.666667     0.333333     0.670159    Uiso  ? Sm
   Co1        1.0     0.000000     0.000000     0.095200    Uiso  ? Co
   Co2        1.0     0.666667     0.333333     0.238123    Uiso  ? Co
   Co3        1.0     0.666667     0.333333     0.428656    Uiso  ? Co
   Co4        1.0     0.333333     0.666667     0.571344    Uiso  ? Co
   Co5        1.0     0.333333     0.666667     0.761877    Uiso  ? Co
   Co6        1.0     0.000000     0.000000     0.904800    Uiso  ? Co
   Co7        1.0     0.833287     0.166713     0.166627    Uiso  ? Co
   Co8        1.0     0.333425     0.166713     0.166627    Uiso  ? Co
   Co9        1.0     0.833287     0.666575     0.166627    Uiso  ? Co
   Co10       1.0     0.500000     0.500000     0.500000    Uiso  ? Co
   Co11       1.0     0.000000     0.500000     0.500000    Uiso  ? Co
   Co12       1.0     0.500000     0.000000     0.500000    Uiso  ? Co
   Co13       1.0     0.166713     0.333425     0.833373    Uiso  ? Co
   Co14       1.0     0.166713     0.833287     0.833373    Uiso  ? Co
   Co15       1.0     0.666575     0.833287     0.833373    Uiso  ? Co
   Co16       1.0     0.000000     0.722731     0.000000    Uiso  ? Co
   Co17       1.0     -0.000000     0.277269     0.000000    Uiso  ? Co
   Co18       1.0     0.277269     0.000000     0.000000    Uiso  ? Co
   Co19       1.0     0.277269     0.277269     0.000000    Uiso  ? Co
   Co20       1.0     0.722731     0.722731     0.000000    Uiso  ? Co
   Co21       1.0     0.722731     -0.000000     0.000000    Uiso  ? Co
   Co22       1.0     0.389358     0.333320     0.333345    Uiso  ? Co
   Co23       1.0     0.389358     0.056037     0.333345    Uiso  ? Co
   Co24       1.0     0.666680     0.056037     0.333345    Uiso  ? Co
   Co25       1.0     0.666680     0.610642     0.333345    Uiso  ? Co
   Co26       1.0     0.943963     0.333320     0.333345    Uiso  ? Co
   Co27       1.0     0.943963     0.610642     0.333345    Uiso  ? Co
   Co28       1.0     0.056037     0.666680     0.666655    Uiso  ? Co
   Co29       1.0     0.056037     0.389358     0.666655    Uiso  ? Co
   Co30       1.0     0.333320     0.943963     0.666655    Uiso  ? Co
   Co31       1.0     0.333320     0.389358     0.666655    Uiso  ? Co
   Co32       1.0     0.610642     0.666680     0.666655    Uiso  ? Co
   Co33       1.0     0.610642     0.943963     0.666655    Uiso  ? Co
   Cu1        1.0     0.501487     0.498513     0.149566    Uiso  ? Cu
   Cu2        1.0     0.168186     0.831815     0.482826    Uiso  ? Cu
   Cu3        1.0     0.834872     0.165128     0.816238    Uiso  ? Cu
   Cu4        1.0     0.501487     0.002975     0.149566    Uiso  ? Cu
   Cu5        1.0     0.168186     0.336370     0.482826    Uiso  ? Cu
   Cu6        1.0     0.834872     0.669745     0.816238    Uiso  ? Cu
   Cu7        1.0     0.997025     0.498513     0.149566    Uiso  ? Cu
   Cu8        1.0     0.663630     0.831815     0.482826    Uiso  ? Cu
   Cu9        1.0     0.330255     0.165128     0.816238    Uiso  ? Cu
   Cu10       1.0     0.165128     0.330255     0.183762    Uiso  ? Cu
   Cu11       1.0     0.831815     0.663630     0.517174    Uiso  ? Cu
   Cu12       1.0     0.498513     0.997025     0.850434    Uiso  ? Cu
   Cu13       1.0     0.165128     0.834872     0.183762    Uiso  ? Cu
   Cu14       1.0     0.831815     0.168186     0.517174    Uiso  ? Cu
   Cu15       1.0     0.498513     0.501487     0.850434    Uiso  ? Cu
   Cu16       1.0     0.669745     0.834872     0.183762    Uiso  ? Cu
   Cu17       1.0     0.336370     0.168186     0.517174    Uiso  ? Cu
   Cu18       1.0     0.002975     0.501487     0.850434    Uiso  ? Cu
