
#======================================================================
# CRYSTAL DATA
#----------------------------------------------------------------------
data_VESTA_phase_1

_chemical_name_common                  'Sm6 Co51                              '
_cell_length_a                         8.349457
_cell_length_b                         8.349457
_cell_length_c                         12.122218
_cell_angle_alpha                      90.064796
_cell_angle_beta                       89.935204
_cell_angle_gamma                      119.740730
_cell_volume                           733.765867
_space_group_name_H-M_alt              'P 1'
_space_group_IT_number                 1

loop_
_space_group_symop_operation_xyz
   'x, y, z'

loop_
   _atom_site_label
   _atom_site_occupancy
   _atom_site_fract_x
   _atom_site_fract_y
   _atom_site_fract_z
   _atom_site_adp_type
   _atom_site_U_iso_or_equiv
   _atom_site_type_symbol
   Sm1        1.0     0.333343     0.666657     0.010105    Uiso  ? Sm
   Sm2        1.0     0.665825     0.334175    -0.011191    Uiso  ? Sm
   Sm3        1.0     0.331700     0.668299     0.323096    Uiso  ? Sm
   Sm4        1.0     0.000575    -0.000575     0.344608    Uiso  ? Sm
   Sm5        1.0    -0.000706     0.000706     0.656455    Uiso  ? Sm
   Sm6        1.0     0.667294     0.332706     0.678279    Uiso  ? Sm
   Co1        1.0    -0.000075     0.000075     0.095914    Uiso  ? Co
   Co2        1.0     0.669245     0.330755     0.237809    Uiso  ? Co
   Co3        1.0     0.666526     0.333474     0.429382    Uiso  ? Co
   Co4        1.0     0.336131     0.663869     0.571737    Uiso  ? Co
   Co5        1.0     0.333028     0.666972     0.763162    Uiso  ? Co
   Co6        1.0    -0.000484     0.000484     0.903774    Uiso  ? Co
   Co7        1.0     0.833450     0.166550     0.166388    Uiso  ? Co
   Co8        1.0     0.331505     0.164815     0.166163    Uiso  ? Co
   Co9        1.0     0.835185     0.668495     0.166163    Uiso  ? Co
   Co10       1.0     0.500116     0.499884     0.499874    Uiso  ? Co
   Co11       1.0    -0.002437     0.497400     0.500063    Uiso  ? Co
   Co12       1.0     0.502600     0.002437     0.500063    Uiso  ? Co
   Co13       1.0     0.166028     0.333355     0.833122    Uiso  ? Co
   Co14       1.0     0.166537     0.833463     0.833221    Uiso  ? Co
   Co15       1.0     0.666645     0.833972     0.833122    Uiso  ? Co
   Co16       1.0     0.002004     0.712928     0.000232    Uiso  ? Co
   Co17       1.0    -0.001228     0.287475     0.000062    Uiso  ? Co
   Co18       1.0     0.287072    -0.002004     0.000232    Uiso  ? Co
   Co19       1.0     0.280296     0.280566    -0.001131    Uiso  ? Co
   Co20       1.0     0.719434     0.719704    -0.001131    Uiso  ? Co
   Co21       1.0     0.712525     0.001228     0.000062    Uiso  ? Co
   Co22       1.0     0.378074     0.334393     0.333115    Uiso  ? Co
   Co23       1.0     0.387488     0.053901     0.332311    Uiso  ? Co
   Co24       1.0     0.668591     0.046202     0.333755    Uiso  ? Co
   Co25       1.0     0.665607     0.621926     0.333115    Uiso  ? Co
   Co26       1.0     0.953798     0.331409     0.333755    Uiso  ? Co
   Co27       1.0     0.946099     0.612512     0.332311    Uiso  ? Co
   Co28       1.0     0.046896     0.666392     0.666611    Uiso  ? Co
   Co29       1.0     0.048958     0.381532     0.666447    Uiso  ? Co
   Co30       1.0     0.333608     0.953104     0.666611    Uiso  ? Co
   Co31       1.0     0.334440     0.380459     0.667236    Uiso  ? Co
   Co32       1.0     0.619541     0.665560     0.667236    Uiso  ? Co
   Co33       1.0     0.618468     0.951042     0.666447    Uiso  ? Co
   Co34       1.0     0.995318     0.497120     0.153188    Uiso  ? Co
   Co35       1.0     0.502880     0.004682     0.153188    Uiso  ? Co
   Co36       1.0     0.676288     0.840108     0.181582    Uiso  ? Co
   Co37       1.0     0.159892     0.323712     0.181582    Uiso  ? Co
   Co38       1.0     0.163897     0.836103     0.181075    Uiso  ? Co
   Co39       1.0     0.661823     0.830464     0.487217    Uiso  ? Co
   Co40       1.0     0.169536     0.338177     0.487217    Uiso  ? Co
   Co41       1.0     0.342833     0.173491     0.514397    Uiso  ? Co
   Co42       1.0     0.826509     0.657167     0.514397    Uiso  ? Co
   Co43       1.0     0.831123     0.168877     0.513536    Uiso  ? Co
   Co44       1.0     0.328355     0.164067     0.820130    Uiso  ? Co
   Co45       1.0     0.835933     0.671645     0.820130    Uiso  ? Co
   Co46       1.0     0.835481     0.164519     0.820257    Uiso  ? Co
   Co47       1.0     0.003940     0.502396     0.845747    Uiso  ? Co
   Co48       1.0     0.497604     0.996060     0.845747    Uiso  ? Co
   Co49       1.0     0.497578     0.502422     0.847774    Uiso  ? Co
   Cu1        1.0     0.500045     0.499955     0.150399    Uiso  ? Cu
   Cu2        1.0     0.167262     0.832738     0.483853    Uiso  ? Cu
