
#======================================================================
# CRYSTAL DATA
#----------------------------------------------------------------------
data_VESTA_phase_1

_chemical_name_common                  'Sm6 Co51                              '
_cell_length_a                         8.351839
_cell_length_b                         8.351839
_cell_length_c                         12.117456
_cell_angle_alpha                      90.101112
_cell_angle_beta                       89.898888
_cell_angle_gamma                      119.618057
_cell_volume                           734.791405
_space_group_name_H-M_alt              'P 1'
_space_group_IT_number                 1

loop_
_space_group_symop_operation_xyz
   'x, y, z'

loop_
   _atom_site_label
   _atom_site_occupancy
   _atom_site_fract_x
   _atom_site_fract_y
   _atom_site_fract_z
   _atom_site_adp_type
   _atom_site_U_iso_or_equiv
   _atom_site_type_symbol
   Sm1        1.0     0.333893     0.666107     0.011116    Uiso  ? Sm
   Sm2        1.0     0.665175     0.334825    -0.010261    Uiso  ? Sm
   Sm3        1.0     0.331890     0.668110     0.323257    Uiso  ? Sm
   Sm4        1.0     0.000541    -0.000541     0.344269    Uiso  ? Sm
   Sm5        1.0    -0.001401     0.001401     0.656542    Uiso  ? Sm
   Sm6        1.0     0.667150     0.332850     0.677626    Uiso  ? Sm
   Co1        1.0    -0.000261     0.000261     0.096056    Uiso  ? Co
   Co2        1.0     0.669133     0.330867     0.237865    Uiso  ? Co
   Co3        1.0     0.666398     0.333602     0.429487    Uiso  ? Co
   Co4        1.0     0.335729     0.664271     0.571287    Uiso  ? Co
   Co5        1.0     0.333049     0.666951     0.762819    Uiso  ? Co
   Co6        1.0     0.002486    -0.002486     0.904575    Uiso  ? Co
   Co7        1.0     0.833491     0.166509     0.166392    Uiso  ? Co
   Co8        1.0     0.331148     0.164660     0.166323    Uiso  ? Co
   Co9        1.0     0.835340     0.668852     0.166323    Uiso  ? Co
   Co10       1.0     0.500162     0.499838     0.499755    Uiso  ? Co
   Co11       1.0    -0.002287     0.497940     0.499684    Uiso  ? Co
   Co12       1.0     0.502060     0.002287     0.499684    Uiso  ? Co
   Co13       1.0     0.168681     0.335455     0.833023    Uiso  ? Co
   Co14       1.0     0.166828     0.833172     0.833170    Uiso  ? Co
   Co15       1.0     0.664545     0.831319     0.833023    Uiso  ? Co
   Co16       1.0     0.002366     0.712936     0.000602    Uiso  ? Co
   Co17       1.0    -0.000900     0.288265    -0.000157    Uiso  ? Co
   Co18       1.0     0.287064    -0.002366     0.000602    Uiso  ? Co
   Co19       1.0     0.279648     0.279421    -0.001110    Uiso  ? Co
   Co20       1.0     0.720579     0.720352    -0.001110    Uiso  ? Co
   Co21       1.0     0.711734     0.000900    -0.000157    Uiso  ? Co
   Co22       1.0     0.378582     0.334265     0.333182    Uiso  ? Co
   Co23       1.0     0.387325     0.053726     0.332217    Uiso  ? Co
   Co24       1.0     0.669024     0.046358     0.333906    Uiso  ? Co
   Co25       1.0     0.665735     0.621418     0.333182    Uiso  ? Co
   Co26       1.0     0.953642     0.330976     0.333906    Uiso  ? Co
   Co27       1.0     0.946274     0.612675     0.332217    Uiso  ? Co
   Co28       1.0     0.045226     0.667615     0.666496    Uiso  ? Co
   Co29       1.0     0.053761     0.386812     0.665528    Uiso  ? Co
   Co30       1.0     0.332385     0.954774     0.666496    Uiso  ? Co
   Co31       1.0     0.335637     0.379714     0.667227    Uiso  ? Co
   Co32       1.0     0.620286     0.664363     0.667227    Uiso  ? Co
   Co33       1.0     0.613188     0.946239     0.665528    Uiso  ? Co
   Co34       1.0     0.995143     0.496959     0.153467    Uiso  ? Co
   Co35       1.0     0.503041     0.004857     0.153467    Uiso  ? Co
   Co36       1.0     0.675981     0.840297     0.181072    Uiso  ? Co
   Co37       1.0     0.159703     0.324019     0.181072    Uiso  ? Co
   Co38       1.0     0.164039     0.835961     0.181258    Uiso  ? Co
   Co39       1.0     0.661790     0.830252     0.486702    Uiso  ? Co
   Co40       1.0     0.169748     0.338210     0.486702    Uiso  ? Co
   Co41       1.0     0.342546     0.173608     0.514383    Uiso  ? Co
   Co42       1.0     0.826392     0.657454     0.514383    Uiso  ? Co
   Co43       1.0     0.830819     0.169181     0.514535    Uiso  ? Co
   Co44       1.0     0.328546     0.163666     0.820157    Uiso  ? Co
   Co45       1.0     0.836334     0.671454     0.820157    Uiso  ? Co
   Co46       1.0     0.009284     0.506933     0.847590    Uiso  ? Co
   Co47       1.0     0.493067     0.990716     0.847590    Uiso  ? Co
   Co48       1.0     0.497401     0.502599     0.847819    Uiso  ? Co
   Cu1        1.0     0.500287     0.499713     0.150657    Uiso  ? Cu
   Cu2        1.0     0.166955     0.833045     0.483903    Uiso  ? Cu
   Cu3        1.0     0.833621     0.166379     0.817289    Uiso  ? Cu
