
#======================================================================
# CRYSTAL DATA
#----------------------------------------------------------------------
data_VESTA_phase_1

_chemical_name_common                  'Sm6 Co51                              '
_cell_length_a                         8.372214
_cell_length_b                         8.359263
_cell_length_c                         12.119418
_cell_angle_alpha                      90.060539
_cell_angle_beta                       89.898254
_cell_angle_gamma                      119.704842
_cell_volume                           736.722733
_space_group_name_H-M_alt              'P 1'
_space_group_IT_number                 1

loop_
_space_group_symop_operation_xyz
   'x, y, z'

loop_
   _atom_site_label
   _atom_site_occupancy
   _atom_site_fract_x
   _atom_site_fract_y
   _atom_site_fract_z
   _atom_site_adp_type
   _atom_site_U_iso_or_equiv
   _atom_site_type_symbol
   Sm1        1.0     0.334122     0.666217     0.009850    Uiso  ? Sm
   Sm2        1.0     0.663283     0.332630    -0.009817    Uiso  ? Sm
   Sm3        1.0     0.329774     0.665650     0.323525    Uiso  ? Sm
   Sm4        1.0     0.001811     0.001047     0.345231    Uiso  ? Sm
   Sm5        1.0    -0.001600     0.001409     0.656505    Uiso  ? Sm
   Sm6        1.0     0.667178     0.333048     0.677420    Uiso  ? Sm
   Co1        1.0     0.000461     0.000673     0.095649    Uiso  ? Co
   Co2        1.0     0.672819     0.336204     0.238530    Uiso  ? Co
   Co3        1.0     0.666575     0.333172     0.429680    Uiso  ? Co
   Co4        1.0     0.335398     0.664145     0.571206    Uiso  ? Co
   Co5        1.0     0.333175     0.667063     0.762873    Uiso  ? Co
   Co6        1.0     0.003666    -0.001689     0.904226    Uiso  ? Co
   Co7        1.0     0.836545     0.166718     0.166784    Uiso  ? Co
   Co8        1.0     0.328550     0.164480     0.166855    Uiso  ? Co
   Co9        1.0     0.835850     0.669371     0.166555    Uiso  ? Co
   Co10       1.0     0.500470     0.499724     0.500035    Uiso  ? Co
   Co11       1.0    -0.002764     0.497468     0.499867    Uiso  ? Co
   Co12       1.0     0.501920     0.002088     0.499727    Uiso  ? Co
   Co13       1.0     0.168958     0.336084     0.832716    Uiso  ? Co
   Co14       1.0     0.166210     0.832607     0.832612    Uiso  ? Co
   Co15       1.0     0.664449     0.830997     0.832907    Uiso  ? Co
   Co16       1.0     0.000864     0.709862     0.000460    Uiso  ? Co
   Co17       1.0     0.000222     0.291898    -0.000279    Uiso  ? Co
   Co18       1.0     0.280391    -0.002875    -0.000720    Uiso  ? Co
   Co19       1.0     0.279661     0.281374    -0.001138    Uiso  ? Co
   Co20       1.0     0.720281     0.718066    -0.001354    Uiso  ? Co
   Co21       1.0     0.719408     0.000855    -0.001280    Uiso  ? Co
   Co22       1.0     0.381175     0.335348     0.333337    Uiso  ? Co
   Co23       1.0     0.387861     0.054263     0.332214    Uiso  ? Co
   Co24       1.0     0.668870     0.043959     0.333813    Uiso  ? Co
   Co25       1.0     0.666193     0.623395     0.333764    Uiso  ? Co
   Co26       1.0     0.951468     0.331328     0.334133    Uiso  ? Co
   Co27       1.0     0.945361     0.613052     0.333005    Uiso  ? Co
   Co28       1.0     0.045432     0.667616     0.666240    Uiso  ? Co
   Co29       1.0     0.054012     0.387027     0.665487    Uiso  ? Co
   Co30       1.0     0.332734     0.955509     0.666489    Uiso  ? Co
   Co31       1.0     0.335575     0.379774     0.667132    Uiso  ? Co
   Co32       1.0     0.619802     0.664317     0.667203    Uiso  ? Co
   Co33       1.0     0.612496     0.945979     0.665755    Uiso  ? Co
   Co34       1.0     0.994426     0.496876     0.153482    Uiso  ? Co
   Co35       1.0     0.681943     0.841277     0.182683    Uiso  ? Co
   Co36       1.0     0.159146     0.322729     0.181040    Uiso  ? Co
   Co37       1.0     0.159738     0.836508     0.182616    Uiso  ? Co
   Co38       1.0     0.661400     0.830197     0.487013    Uiso  ? Co
   Co39       1.0     0.169853     0.338390     0.486859    Uiso  ? Co
   Co40       1.0     0.342370     0.173424     0.513924    Uiso  ? Co
   Co41       1.0     0.826577     0.657729     0.514972    Uiso  ? Co
   Co42       1.0     0.830481     0.168895     0.514340    Uiso  ? Co
   Co43       1.0     0.328249     0.163629     0.819925    Uiso  ? Co
   Co44       1.0     0.836086     0.670972     0.820193    Uiso  ? Co
   Co45       1.0     0.008706     0.506519     0.847311    Uiso  ? Co
   Co46       1.0     0.492814     0.990673     0.848547    Uiso  ? Co
   Co47       1.0     0.497264     0.502092     0.847793    Uiso  ? Co
   Cu1        1.0     0.500543     0.500438     0.150889    Uiso  ? Cu
   Cu2        1.0     0.167120     0.832822     0.483896    Uiso  ? Cu
   Cu3        1.0     0.833644     0.166481     0.816982    Uiso  ? Cu
   Cu4        1.0     0.500982     0.000495     0.150338    Uiso  ? Cu
