
#======================================================================
# CRYSTAL DATA
#----------------------------------------------------------------------
data_VESTA_phase_1

_chemical_name_common                  'Sm9 Co27'
_cell_length_a                         4.944077
_cell_length_b                         5.129047
_cell_length_c                         24.563265
_cell_angle_alpha                      90.000000
_cell_angle_beta                       90.000000
_cell_angle_gamma                      118.814034
_cell_volume                           545.764917
_space_group_name_H-M_alt              'P 1'
_space_group_IT_number                 1

loop_
_space_group_symop_operation_xyz
   'x, y, z'

loop_
   _atom_site_label
   _atom_site_occupancy
   _atom_site_fract_x
   _atom_site_fract_y
   _atom_site_fract_z
   _atom_site_adp_type
   _atom_site_U_iso_or_equiv
   _atom_site_type_symbol
   Sm1        1.0     0.000000     0.000000     0.000000    Uiso  ? Sm
   Sm2        1.0     0.667584     0.335168     0.332540    Uiso  ? Sm
   Sm3        1.0     0.332416     0.664832     0.667460    Uiso  ? Sm
   Sm4        1.0     0.672186     0.344371     0.191077    Uiso  ? Sm
   Sm5        1.0     0.001828     0.003655     0.138595    Uiso  ? Sm
   Sm6        1.0     0.336666     0.673332     0.526356    Uiso  ? Sm
   Sm7        1.0     0.663334     0.326668     0.473644    Uiso  ? Sm
   Sm8        1.0    -0.001828    -0.003655     0.861405    Uiso  ? Sm
   Sm9        1.0     0.327814     0.655629     0.808923    Uiso  ? Sm
   Co1        1.0     0.338633     0.677266     0.165959    Uiso  ? Co
   Co2        1.0     0.000000     0.000000     0.500000    Uiso  ? Co
   Co3        1.0     0.661367     0.322734     0.834041    Uiso  ? Co
   Co4        1.0     0.361266     0.722533     0.333652    Uiso  ? Co
   Co5        1.0     0.316265     0.632529    -0.000617    Uiso  ? Co
   Co6        1.0     0.026070     0.052140     0.667862    Uiso  ? Co
   Co7        1.0    -0.026070    -0.052140     0.332138    Uiso  ? Co
   Co8        1.0     0.683735     0.367471     0.000617    Uiso  ? Co
   Co9        1.0     0.638734     0.277467     0.666348    Uiso  ? Co
   Co10       1.0     0.660530     0.830483     0.250911    Uiso  ? Co
   Co11       1.0     0.169953     0.830483     0.250911    Uiso  ? Co
   Co12       1.0     0.006438     0.508336     0.080951    Uiso  ? Co
   Co13       1.0     0.501154     0.002307     0.076884    Uiso  ? Co
   Co14       1.0     0.501899     0.508336     0.080951    Uiso  ? Co
   Co15       1.0     0.325285     0.159329     0.585090    Uiso  ? Co
   Co16       1.0     0.834044     0.159329     0.585090    Uiso  ? Co
   Co17       1.0     0.674715     0.840671     0.414910    Uiso  ? Co
   Co18       1.0     0.165956     0.840671     0.414910    Uiso  ? Co
   Co19       1.0    -0.006438     0.491664     0.919049    Uiso  ? Co
   Co20       1.0     0.498846    -0.002307     0.923116    Uiso  ? Co
   Co21       1.0     0.498102     0.491664     0.919049    Uiso  ? Co
   Co22       1.0     0.339470     0.169517     0.749089    Uiso  ? Co
   Co23       1.0     0.830047     0.169517     0.749089    Uiso  ? Co
   Cu1        1.0     0.170301     0.340603     0.409859    Uiso  ? Cu
   Cu2        1.0     0.829699     0.659397     0.590141    Uiso  ? Cu
   Cu3        1.0     0.165020     0.330040     0.255615    Uiso  ? Cu
   Cu4        1.0     0.834980     0.669960     0.744385    Uiso  ? Cu
