
#======================================================================
# CRYSTAL DATA
#----------------------------------------------------------------------
data_VESTA_phase_1

_chemical_name_common                  'Sm9 Co27'
_cell_length_a                         4.984531
_cell_length_b                         5.152177
_cell_length_c                         24.543419
_cell_angle_alpha                      90.000000
_cell_angle_beta                       90.000000
_cell_angle_gamma                      119.324577
_cell_volume                           549.536505
_space_group_name_H-M_alt              'P 1'
_space_group_IT_number                 1

loop_
_space_group_symop_operation_xyz
   'x, y, z'

loop_
   _atom_site_label
   _atom_site_occupancy
   _atom_site_fract_x
   _atom_site_fract_y
   _atom_site_fract_z
   _atom_site_adp_type
   _atom_site_U_iso_or_equiv
   _atom_site_type_symbol
   Sm1        1.0     0.996179     0.004592     0.000964    Uiso  ? Sm
   Sm2        1.0     0.667663     0.335973     0.332597    Uiso  ? Sm
   Sm3        1.0     0.333089     0.662042     0.666999    Uiso  ? Sm
   Sm4        1.0     0.672154     0.348964     0.191141    Uiso  ? Sm
   Sm5        1.0     0.001557     0.009078     0.139275    Uiso  ? Sm
   Sm6        1.0     0.337344     0.671995     0.526116    Uiso  ? Sm
   Sm7        1.0     0.663190     0.327014     0.473691    Uiso  ? Sm
   Sm8        1.0     0.003165     0.991017     0.860388    Uiso  ? Sm
   Sm9        1.0     0.327871     0.649670     0.807804    Uiso  ? Sm
   Co1        1.0     0.338471     0.683693     0.166509    Uiso  ? Co
   Co2        1.0     0.000328     0.999386     0.499965    Uiso  ? Co
   Co3        1.0     0.666840     0.313625     0.834182    Uiso  ? Co
   Co4        1.0     0.364886     0.721940     0.333982    Uiso  ? Co
   Co5        1.0     0.302468     0.676165     0.999282    Uiso  ? Co
   Co6        1.0     0.031078     0.048163     0.667891    Uiso  ? Co
   Co7        1.0     0.970908     0.950009     0.332235    Uiso  ? Co
   Co8        1.0     0.688817     0.332769     0.002623    Uiso  ? Co
   Co9        1.0     0.636846     0.276579     0.665954    Uiso  ? Co
   Co10       1.0     0.659569     0.833671     0.250899    Uiso  ? Co
   Co11       1.0     0.170900     0.833380     0.251768    Uiso  ? Co
   Co12       1.0     0.009163     0.511624     0.081775    Uiso  ? Co
   Co13       1.0     0.498582     0.000366     0.079708    Uiso  ? Co
   Co14       1.0     0.500671     0.510988     0.078273    Uiso  ? Co
   Co15       1.0     0.325136     0.158241     0.584608    Uiso  ? Co
   Co16       1.0     0.834797     0.158066     0.585476    Uiso  ? Co
   Co17       1.0     0.675668     0.840708     0.415337    Uiso  ? Co
   Co18       1.0     0.165880     0.840654     0.414454    Uiso  ? Co
   Co19       1.0     0.986121     0.490811     0.918412    Uiso  ? Co
   Co20       1.0     0.502219     0.007506     0.920729    Uiso  ? Co
   Co21       1.0     0.341235     0.163562     0.749231    Uiso  ? Co
   Co22       1.0     0.827807     0.163825     0.748304    Uiso  ? Co
   Cu1        1.0     0.170593     0.340775     0.410235    Uiso  ? Cu
   Cu2        1.0     0.830012     0.658049     0.589624    Uiso  ? Cu
   Cu3        1.0     0.164403     0.332433     0.255600    Uiso  ? Cu
   Cu4        1.0     0.835631     0.665149     0.744343    Uiso  ? Cu
   Cu5        1.0     0.493491     0.500155     0.921396    Uiso  ? Cu
