
#======================================================================
# CRYSTAL DATA
#----------------------------------------------------------------------
data_VESTA_phase_1

_chemical_name_common                  'Sm6 Co51                              '
_cell_length_a                         8.388118
_cell_length_b                         8.363889
_cell_length_c                         12.116318
_cell_angle_alpha                      90.027077
_cell_angle_beta                       89.914139
_cell_angle_gamma                      119.790558
_cell_volume                           737.710984
_space_group_name_H-M_alt              'P 1'
_space_group_IT_number                 1

loop_
_space_group_symop_operation_xyz
   'x, y, z'

loop_
   _atom_site_label
   _atom_site_occupancy
   _atom_site_fract_x
   _atom_site_fract_y
   _atom_site_fract_z
   _atom_site_adp_type
   _atom_site_U_iso_or_equiv
   _atom_site_type_symbol
   Sm1        1.0     0.334241     0.666434     0.009546    Uiso  ? Sm
   Sm2        1.0     0.663123     0.332760    -0.009828    Uiso  ? Sm
   Sm3        1.0     0.327578     0.663567     0.323776    Uiso  ? Sm
   Sm4        1.0     0.002338     0.001031     0.344086    Uiso  ? Sm
   Sm5        1.0    -0.003815    -0.001056     0.656806    Uiso  ? Sm
   Sm6        1.0     0.668417     0.334623     0.678401    Uiso  ? Sm
   Co1        1.0     0.000489     0.000728     0.095703    Uiso  ? Co
   Co2        1.0     0.674136     0.336998     0.238111    Uiso  ? Co
   Co3        1.0     0.666747     0.333400     0.429350    Uiso  ? Co
   Co4        1.0     0.338622     0.669313     0.571766    Uiso  ? Co
   Co5        1.0     0.333485     0.666583     0.763158    Uiso  ? Co
   Co6        1.0     0.003454    -0.002016     0.904145    Uiso  ? Co
   Co7        1.0     0.836022     0.166338     0.166252    Uiso  ? Co
   Co8        1.0     0.328554     0.164416     0.166714    Uiso  ? Co
   Co9        1.0     0.836194     0.669998     0.166306    Uiso  ? Co
   Co10       1.0     0.503549     0.499860     0.500404    Uiso  ? Co
   Co11       1.0    -0.005149     0.497478     0.500358    Uiso  ? Co
   Co12       1.0     0.502621     0.002992     0.500139    Uiso  ? Co
   Co13       1.0     0.168888     0.335808     0.832793    Uiso  ? Co
   Co14       1.0     0.166496     0.832473     0.832881    Uiso  ? Co
   Co15       1.0     0.664285     0.830691     0.833079    Uiso  ? Co
   Co16       1.0     0.000857     0.709891     0.000372    Uiso  ? Co
   Co17       1.0     0.000631     0.292542    -0.000254    Uiso  ? Co
   Co18       1.0     0.280086    -0.002904    -0.000692    Uiso  ? Co
   Co19       1.0     0.279044     0.281183    -0.000956    Uiso  ? Co
   Co20       1.0     0.720677     0.718426    -0.001496    Uiso  ? Co
   Co21       1.0     0.719343     0.001091    -0.001471    Uiso  ? Co
   Co22       1.0     0.388439     0.335208     0.332227    Uiso  ? Co
   Co23       1.0     0.387665     0.052258     0.332089    Uiso  ? Co
   Co24       1.0     0.667491     0.039631     0.333680    Uiso  ? Co
   Co25       1.0     0.667227     0.627138     0.333626    Uiso  ? Co
   Co26       1.0     0.944640     0.330092     0.333094    Uiso  ? Co
   Co27       1.0     0.944877     0.614339     0.332946    Uiso  ? Co
   Co28       1.0     0.048053     0.668630     0.666328    Uiso  ? Co
   Co29       1.0     0.054760     0.387865     0.665518    Uiso  ? Co
   Co30       1.0     0.333137     0.957185     0.667073    Uiso  ? Co
   Co31       1.0     0.335506     0.377694     0.667048    Uiso  ? Co
   Co32       1.0     0.617528     0.664707     0.667443    Uiso  ? Co
   Co33       1.0     0.611527     0.946323     0.666608    Uiso  ? Co
   Co34       1.0     0.994191     0.496935     0.153194    Uiso  ? Co
   Co35       1.0     0.681743     0.841099     0.182207    Uiso  ? Co
   Co36       1.0     0.159164     0.323152     0.181858    Uiso  ? Co
   Co37       1.0     0.159743     0.836248     0.182626    Uiso  ? Co
   Co38       1.0     0.660575     0.830178     0.487048    Uiso  ? Co
   Co39       1.0     0.348067     0.174167     0.515784    Uiso  ? Co
   Co40       1.0     0.825979     0.656347     0.514837    Uiso  ? Co
   Co41       1.0     0.825978     0.169565     0.515577    Uiso  ? Co
   Co42       1.0     0.327679     0.163459     0.820082    Uiso  ? Co
   Co43       1.0     0.836177     0.671122     0.820255    Uiso  ? Co
   Co44       1.0     0.008465     0.506227     0.846918    Uiso  ? Co
   Co45       1.0     0.493065     0.990971     0.849267    Uiso  ? Co
   Co46       1.0     0.496956     0.501970     0.847703    Uiso  ? Co
   Cu1        1.0     0.500661     0.500721     0.150464    Uiso  ? Cu
   Cu2        1.0     0.167443     0.833474     0.484087    Uiso  ? Cu
   Cu3        1.0     0.833829     0.166327     0.816950    Uiso  ? Cu
   Cu4        1.0     0.500712     0.000126     0.150258    Uiso  ? Cu
   Cu5        1.0     0.167812     0.334190     0.483760    Uiso  ? Cu
