
#======================================================================
# CRYSTAL DATA
#----------------------------------------------------------------------
data_VESTA_phase_1

_chemical_name_common                  'Sm6 Co51                              '
_cell_length_a                         8.403029
_cell_length_b                         8.369126
_cell_length_c                         12.116185
_cell_angle_alpha                      90.000000
_cell_angle_beta                       89.960014
_cell_angle_gamma                      119.866623
_cell_volume                           738.915070
_space_group_name_H-M_alt              'P 1'
_space_group_IT_number                 1

loop_
_space_group_symop_operation_xyz
   'x, y, z'

loop_
   _atom_site_label
   _atom_site_occupancy
   _atom_site_fract_x
   _atom_site_fract_y
   _atom_site_fract_z
   _atom_site_adp_type
   _atom_site_U_iso_or_equiv
   _atom_site_type_symbol
   Sm1        1.0     0.335560     0.667781     0.010510    Uiso  ? Sm
   Sm2        1.0     0.660883     0.330441    -0.009574    Uiso  ? Sm
   Sm3        1.0     0.327581     0.663791     0.323837    Uiso  ? Sm
   Sm4        1.0     0.002227     0.001113     0.343811    Uiso  ? Sm
   Sm5        1.0    -0.005666    -0.002833     0.657020    Uiso  ? Sm
   Sm6        1.0     0.668779     0.334389     0.677117    Uiso  ? Sm
   Co1        1.0     0.000557     0.000279     0.095919    Uiso  ? Co
   Co2        1.0     0.673568     0.336783     0.237897    Uiso  ? Co
   Co3        1.0     0.667089     0.333544     0.429310    Uiso  ? Co
   Co4        1.0     0.340060     0.670030     0.571324    Uiso  ? Co
   Co5        1.0     0.333673     0.666837     0.762689    Uiso  ? Co
   Co6        1.0     0.006821     0.003410     0.904494    Uiso  ? Co
   Co7        1.0     0.836248     0.165972     0.166579    Uiso  ? Co
   Co8        1.0     0.328331     0.164166     0.166927    Uiso  ? Co
   Co9        1.0     0.836248     0.670277     0.166579    Uiso  ? Co
   Co10       1.0     0.502913     0.499450     0.499934    Uiso  ? Co
   Co11       1.0    -0.005054     0.497473     0.500264    Uiso  ? Co
   Co12       1.0     0.502913     0.003463     0.499934    Uiso  ? Co
   Co13       1.0     0.169497     0.336853     0.833221    Uiso  ? Co
   Co14       1.0     0.169497     0.832643     0.833221    Uiso  ? Co
   Co15       1.0     0.661742     0.830870     0.833570    Uiso  ? Co
   Co16       1.0     0.000830     0.706753     0.000334    Uiso  ? Co
   Co17       1.0     0.000830     0.294077     0.000334    Uiso  ? Co
   Co18       1.0     0.277892    -0.003034    -0.000288    Uiso  ? Co
   Co19       1.0     0.277892     0.280925    -0.000288    Uiso  ? Co
   Co20       1.0     0.721468     0.719470    -0.001318    Uiso  ? Co
   Co21       1.0     0.721468     0.001998    -0.001318    Uiso  ? Co
   Co22       1.0     0.388131     0.335360     0.332047    Uiso  ? Co
   Co23       1.0     0.388131     0.052770     0.332047    Uiso  ? Co
   Co24       1.0     0.667548     0.040155     0.333694    Uiso  ? Co
   Co25       1.0     0.667548     0.627393     0.333694    Uiso  ? Co
   Co26       1.0     0.944550     0.330252     0.333087    Uiso  ? Co
   Co27       1.0     0.944550     0.614296     0.333087    Uiso  ? Co
   Co28       1.0     0.054557     0.668577     0.665393    Uiso  ? Co
   Co29       1.0     0.054557     0.385981     0.665393    Uiso  ? Co
   Co30       1.0     0.334199     0.960591     0.666972    Uiso  ? Co
   Co31       1.0     0.334199     0.373609     0.666972    Uiso  ? Co
   Co32       1.0     0.611324     0.663633     0.666450    Uiso  ? Co
   Co33       1.0     0.611324     0.947692     0.666450    Uiso  ? Co
   Co34       1.0     0.993676     0.496838     0.153299    Uiso  ? Co
   Co35       1.0     0.681158     0.840578     0.181944    Uiso  ? Co
   Co36       1.0     0.159397     0.323400     0.182333    Uiso  ? Co
   Co37       1.0     0.159397     0.835997     0.182333    Uiso  ? Co
   Co38       1.0     0.660343     0.830171     0.486709    Uiso  ? Co
   Co39       1.0     0.347902     0.173951     0.515346    Uiso  ? Co
   Co40       1.0     0.826024     0.656663     0.515686    Uiso  ? Co
   Co41       1.0     0.826024     0.169362     0.515686    Uiso  ? Co
   Co42       1.0     0.327031     0.163516     0.819906    Uiso  ? Co
   Co43       1.0     0.014446     0.507223     0.848717    Uiso  ? Co
   Co44       1.0     0.492540     0.989814     0.849046    Uiso  ? Co
   Co45       1.0     0.492540     0.502726     0.849046    Uiso  ? Co
   Cu1        1.0     0.500864     0.500388     0.150418    Uiso  ? Cu
   Cu2        1.0     0.167538     0.833693     0.483772    Uiso  ? Cu
   Cu3        1.0     0.834126     0.167060     0.817122    Uiso  ? Cu
   Cu4        1.0     0.500864     0.000477     0.150418    Uiso  ? Cu
   Cu5        1.0     0.167538     0.333844     0.483772    Uiso  ? Cu
   Cu6        1.0     0.834126     0.667067     0.817122    Uiso  ? Cu
