
#======================================================================
# CRYSTAL DATA
#----------------------------------------------------------------------
data_VESTA_phase_1

_chemical_name_common                  'Sm6 Co51                              '
_cell_length_a                         8.407560
_cell_length_b                         8.387272
_cell_length_c                         12.113680
_cell_angle_alpha                      90.000000
_cell_angle_beta                       89.989960
_cell_angle_gamma                      119.920212
_cell_volume                           740.365276
_space_group_name_H-M_alt              'P 1'
_space_group_IT_number                 1

loop_
_space_group_symop_operation_xyz
   'x, y, z'

loop_
   _atom_site_label
   _atom_site_occupancy
   _atom_site_fract_x
   _atom_site_fract_y
   _atom_site_fract_z
   _atom_site_adp_type
   _atom_site_U_iso_or_equiv
   _atom_site_type_symbol
   Sm1        1.0     0.334512     0.667257     0.009194    Uiso  ? Sm
   Sm2        1.0     0.664066     0.332032    -0.009165    Uiso  ? Sm
   Sm3        1.0     0.330598     0.665299     0.324019    Uiso  ? Sm
   Sm4        1.0     0.000373     0.000187     0.344491    Uiso  ? Sm
   Sm5        1.0    -0.005150    -0.002575     0.656967    Uiso  ? Sm
   Sm6        1.0     0.668450     0.334224     0.677088    Uiso  ? Sm
   Co1        1.0    -0.000340    -0.000170     0.095592    Uiso  ? Co
   Co2        1.0     0.668801     0.334400     0.238217    Uiso  ? Co
   Co3        1.0     0.667449     0.333724     0.429512    Uiso  ? Co
   Co4        1.0     0.339648     0.669825     0.570981    Uiso  ? Co
   Co5        1.0     0.333751     0.666876     0.762675    Uiso  ? Co
   Co6        1.0     0.005792     0.002896     0.904297    Uiso  ? Co
   Co7        1.0     0.835047     0.164043     0.167001    Uiso  ? Co
   Co8        1.0     0.328583     0.164292     0.166935    Uiso  ? Co
   Co9        1.0     0.835047     0.671005     0.167001    Uiso  ? Co
   Co10       1.0     0.503020     0.499599     0.499949    Uiso  ? Co
   Co11       1.0    -0.004073     0.497963     0.500152    Uiso  ? Co
   Co12       1.0     0.503020     0.003421     0.499949    Uiso  ? Co
   Co13       1.0     0.169855     0.336946     0.832852    Uiso  ? Co
   Co14       1.0     0.169855     0.832908     0.832852    Uiso  ? Co
   Co15       1.0     0.661149     0.830574     0.833126    Uiso  ? Co
   Co16       1.0     0.001112     0.716793    -0.000980    Uiso  ? Co
   Co17       1.0     0.001112     0.284319    -0.000980    Uiso  ? Co
   Co18       1.0     0.281224    -0.000701    -0.000790    Uiso  ? Co
   Co19       1.0     0.281224     0.281924    -0.000790    Uiso  ? Co
   Co20       1.0     0.718095     0.718152    -0.001368    Uiso  ? Co
   Co21       1.0     0.718095    -0.000057    -0.001368    Uiso  ? Co
   Co22       1.0     0.387351     0.334302     0.332842    Uiso  ? Co
   Co23       1.0     0.387351     0.053048     0.332842    Uiso  ? Co
   Co24       1.0     0.667138     0.042310     0.334272    Uiso  ? Co
   Co25       1.0     0.667138     0.624827     0.334272    Uiso  ? Co
   Co26       1.0     0.945487     0.330438     0.333211    Uiso  ? Co
   Co27       1.0     0.945487     0.615048     0.333211    Uiso  ? Co
   Co28       1.0     0.054162     0.667962     0.665652    Uiso  ? Co
   Co29       1.0     0.054162     0.386202     0.665652    Uiso  ? Co
   Co30       1.0     0.334534     0.959830     0.666924    Uiso  ? Co
   Co31       1.0     0.334534     0.374705     0.666924    Uiso  ? Co
   Co32       1.0     0.611534     0.663854     0.666249    Uiso  ? Co
   Co33       1.0     0.611534     0.947681     0.666249    Uiso  ? Co
   Co34       1.0     0.681790     0.840895     0.181082    Uiso  ? Co
   Co35       1.0     0.158401     0.318007     0.183602    Uiso  ? Co
   Co36       1.0     0.158401     0.840393     0.183602    Uiso  ? Co
   Co37       1.0     0.660732     0.830365     0.486673    Uiso  ? Co
   Co38       1.0     0.347895     0.173948     0.516449    Uiso  ? Co
   Co39       1.0     0.826358     0.656448     0.515681    Uiso  ? Co
   Co40       1.0     0.826358     0.169910     0.515681    Uiso  ? Co
   Co41       1.0     0.327670     0.163836     0.819677    Uiso  ? Co
   Co42       1.0     0.014038     0.507019     0.850330    Uiso  ? Co
   Co43       1.0     0.492658     0.989914     0.849106    Uiso  ? Co
   Co44       1.0     0.492658     0.502744     0.849106    Uiso  ? Co
   Cu1        1.0     0.499717     0.500165     0.150842    Uiso  ? Cu
   Cu2        1.0     0.167744     0.833794     0.483839    Uiso  ? Cu
   Cu3        1.0     0.833880     0.166756     0.816738    Uiso  ? Cu
   Cu4        1.0     0.499717    -0.000448     0.150842    Uiso  ? Cu
   Cu5        1.0     0.167744     0.333949     0.483839    Uiso  ? Cu
   Cu6        1.0     0.833880     0.667125     0.816738    Uiso  ? Cu
   Cu7        1.0    -0.000364     0.499818     0.150461    Uiso  ? Cu
