
#======================================================================
# CRYSTAL DATA
#----------------------------------------------------------------------
data_VESTA_phase_1

_chemical_name_common                  'Sm6 Co51                              '
_cell_length_a                         8.419703
_cell_length_b                         8.419703
_cell_length_c                         12.114006
_cell_angle_alpha                      90.000000
_cell_angle_beta                       90.000000
_cell_angle_gamma                      120.000000
_cell_volume                           743.724201
_space_group_name_H-M_alt              'P 1'
_space_group_IT_number                 1

loop_
_space_group_symop_operation_xyz
   'x, y, z'

loop_
   _atom_site_label
   _atom_site_occupancy
   _atom_site_fract_x
   _atom_site_fract_y
   _atom_site_fract_z
   _atom_site_adp_type
   _atom_site_U_iso_or_equiv
   _atom_site_type_symbol
   Sm1        1.0     0.333333     0.666667     0.009761    Uiso  ? Sm
   Sm2        1.0     0.666667     0.333333     0.990956    Uiso  ? Sm
   Sm3        1.0     0.333333     0.666667     0.324262    Uiso  ? Sm
   Sm4        1.0     -0.000000     -0.000000     0.343033    Uiso  ? Sm
   Sm5        1.0     -0.000000     -0.000000     0.657634    Uiso  ? Sm
   Sm6        1.0     0.666667     0.333333     0.676355    Uiso  ? Sm
   Co1        1.0     -0.000000     -0.000000     0.095535    Uiso  ? Co
   Co2        1.0     0.666667     0.333333     0.237140    Uiso  ? Co
   Co3        1.0     0.666667     0.333333     0.428994    Uiso  ? Co
   Co4        1.0     0.333333     0.666667     0.570503    Uiso  ? Co
   Co5        1.0     0.333333     0.666667     0.762360    Uiso  ? Co
   Co6        1.0     -0.000000     -0.000000     0.903789    Uiso  ? Co
   Co7        1.0     0.835553     0.164447     0.166742    Uiso  ? Co
   Co8        1.0     0.328892     0.164447     0.166742    Uiso  ? Co
   Co9        1.0     0.835553     0.671108     0.166742    Uiso  ? Co
   Co10       1.0     0.502173     0.497827     0.500084    Uiso  ? Co
   Co11       1.0     0.995654     0.497827     0.500084    Uiso  ? Co
   Co12       1.0     0.502173     0.004346     0.500084    Uiso  ? Co
   Co13       1.0     0.168854     0.337708     0.833431    Uiso  ? Co
   Co14       1.0     0.168854     0.831146     0.833431    Uiso  ? Co
   Co15       1.0     0.662292     0.831146     0.833431    Uiso  ? Co
   Co16       1.0     0.000998     0.718433     0.999606    Uiso  ? Co
   Co17       1.0     0.000998     0.282565     0.999606    Uiso  ? Co
   Co18       1.0     0.281567     0.999002     0.999606    Uiso  ? Co
   Co19       1.0     0.281567     0.282565     0.999606    Uiso  ? Co
   Co20       1.0     0.717435     0.718433     0.999606    Uiso  ? Co
   Co21       1.0     0.717435     0.999002     0.999606    Uiso  ? Co
   Co22       1.0     0.384246     0.332300     0.332975    Uiso  ? Co
   Co23       1.0     0.384246     0.051945     0.332975    Uiso  ? Co
   Co24       1.0     0.667700     0.051945     0.332975    Uiso  ? Co
   Co25       1.0     0.667700     0.615754     0.332975    Uiso  ? Co
   Co26       1.0     0.948055     0.332300     0.332975    Uiso  ? Co
   Co27       1.0     0.948055     0.615754     0.332975    Uiso  ? Co
   Co28       1.0     0.050921     0.665671     0.666264    Uiso  ? Co
   Co29       1.0     0.050921     0.385251     0.666264    Uiso  ? Co
   Co30       1.0     0.334329     0.949079     0.666264    Uiso  ? Co
   Co31       1.0     0.334329     0.385251     0.666264    Uiso  ? Co
   Co32       1.0     0.614749     0.665671     0.666264    Uiso  ? Co
   Co33       1.0     0.614749     0.949079     0.666264    Uiso  ? Co
   Co34       1.0     0.681719     0.840859     0.183331    Uiso  ? Co
   Co35       1.0     0.159141     0.318281     0.183331    Uiso  ? Co
   Co36       1.0     0.159141     0.840859     0.183331    Uiso  ? Co
   Co37       1.0     0.348393     0.174197     0.516810    Uiso  ? Co
   Co38       1.0     0.825803     0.651607     0.516810    Uiso  ? Co
   Co39       1.0     0.825803     0.174197     0.516810    Uiso  ? Co
   Co40       1.0     0.015183     0.507592     0.850039    Uiso  ? Co
   Co41       1.0     0.492408     0.984817     0.850039    Uiso  ? Co
   Co42       1.0     0.492408     0.507592     0.850039    Uiso  ? Co
   Cu1        1.0     0.499909     0.500091     0.150647    Uiso  ? Cu
   Cu2        1.0     0.166565     0.833435     0.483878    Uiso  ? Cu
   Cu3        1.0     0.833233     0.166767     0.817239    Uiso  ? Cu
   Cu4        1.0     0.499909     0.999819     0.150647    Uiso  ? Cu
   Cu5        1.0     0.166565     0.333130     0.483878    Uiso  ? Cu
   Cu6        1.0     0.833233     0.666467     0.817239    Uiso  ? Cu
   Cu7        1.0     0.000181     0.500091     0.150647    Uiso  ? Cu
   Cu8        1.0     0.666870     0.833435     0.483878    Uiso  ? Cu
   Cu9        1.0     0.333533     0.166767     0.817239    Uiso  ? Cu
