
#======================================================================
# CRYSTAL DATA
#----------------------------------------------------------------------
data_VESTA_phase_1

_chemical_name_common                  'Sm6 Co51                              '
_cell_length_a                         8.379946
_cell_length_b                         8.374100
_cell_length_c                         12.188994
_cell_angle_alpha                      90.048294
_cell_angle_beta                       90.000000
_cell_angle_gamma                      120.023094
_cell_volume                           740.587755
_space_group_name_H-M_alt              'P 1'
_space_group_IT_number                 1

loop_
_space_group_symop_operation_xyz
   'x, y, z'

loop_
   _atom_site_label
   _atom_site_occupancy
   _atom_site_fract_x
   _atom_site_fract_y
   _atom_site_fract_z
   _atom_site_adp_type
   _atom_site_U_iso_or_equiv
   _atom_site_type_symbol
   Sm1        1.0     0.333969     0.667940     0.011689    Uiso  ? Sm
   Sm2        1.0     0.666031     0.332060    -0.011689    Uiso  ? Sm
   Sm3        1.0     0.336180     0.672362     0.320874    Uiso  ? Sm
   Sm4        1.0    -0.002237    -0.004474     0.344745    Uiso  ? Sm
   Sm5        1.0     0.002237     0.004474     0.655255    Uiso  ? Sm
   Sm6        1.0     0.663819     0.327638     0.679125    Uiso  ? Sm
   Co1        1.0     0.832687     0.166642     0.165679    Uiso  ? Co
   Co2        1.0     0.333954     0.166642     0.165679    Uiso  ? Co
   Co3        1.0     0.832803     0.665608     0.166713    Uiso  ? Co
   Co4        1.0     0.500000     0.500000     0.500000    Uiso  ? Co
   Co5        1.0     0.000000     0.500000     0.500000    Uiso  ? Co
   Co6        1.0     0.500000     0.000000     0.500000    Uiso  ? Co
   Co7        1.0     0.167197     0.334392     0.833287    Uiso  ? Co
   Co8        1.0     0.167313     0.833358     0.834321    Uiso  ? Co
   Co9        1.0     0.666046     0.833358     0.834321    Uiso  ? Co
   Co10       1.0    -0.000209     0.712284     0.000585    Uiso  ? Co
   Co11       1.0     0.000209     0.287716    -0.000585    Uiso  ? Co
   Co12       1.0     0.287097     -0.000000     0.000000    Uiso  ? Co
   Co13       1.0     0.287507     0.287716    -0.000585    Uiso  ? Co
   Co14       1.0     0.712493     0.712284     0.000585    Uiso  ? Co
   Co15       1.0     0.712903     0.000000     -0.000000    Uiso  ? Co
   Co16       1.0     0.378697     0.045342     0.333026    Uiso  ? Co
   Co17       1.0     0.666646     0.045342     0.333026    Uiso  ? Co
   Co18       1.0     0.666667     0.621571     0.332953    Uiso  ? Co
   Co19       1.0     0.954905     0.621571     0.332953    Uiso  ? Co
   Co20       1.0     0.045095     0.378429     0.667047    Uiso  ? Co
   Co21       1.0     0.333354     0.954658     0.666974    Uiso  ? Co
   Co22       1.0     0.333333     0.378429     0.667047    Uiso  ? Co
   Co23       1.0     0.621303     0.954658     0.666974    Uiso  ? Co
   Co24       1.0     0.996359     0.498877     0.153730    Uiso  ? Co
   Co25       1.0     0.502266     0.004533     0.154123    Uiso  ? Co
   Co26       1.0     0.502519     0.498877     0.153730    Uiso  ? Co
   Co27       1.0     0.670197     0.835315     0.178084    Uiso  ? Co
   Co28       1.0     0.164982     0.329963     0.174319    Uiso  ? Co
   Co29       1.0     0.165119     0.835315     0.178084    Uiso  ? Co
   Co30       1.0     0.663121     0.832220     0.488090    Uiso  ? Co
   Co31       1.0     0.168695     0.337388     0.492047    Uiso  ? Co
   Co32       1.0     0.169100     0.832220     0.488090    Uiso  ? Co
   Co33       1.0     0.336879     0.167780     0.511910    Uiso  ? Co
   Co34       1.0     0.831305     0.662612     0.507953    Uiso  ? Co
   Co35       1.0     0.830900     0.167780     0.511910    Uiso  ? Co
   Co36       1.0     0.329803     0.164685     0.821916    Uiso  ? Co
   Co37       1.0     0.835018     0.670037     0.825681    Uiso  ? Co
   Co38       1.0     0.834881     0.164685     0.821916    Uiso  ? Co
   Co39       1.0     0.003641     0.501123     0.846270    Uiso  ? Co
   Co40       1.0     0.497734     0.995467     0.845877    Uiso  ? Co
   Co41       1.0     0.497481     0.501123     0.846270    Uiso  ? Co
   Fe1        1.0     0.666553     0.333105     0.235510    Uiso  ? Fe
   Fe2        1.0     0.333435     0.666870     0.569683    Uiso  ? Fe
   Fe3        1.0     0.000295     0.000591     0.902627    Uiso  ? Fe
   Fe4        1.0     0.666565     0.333130     0.430317    Uiso  ? Fe
   Fe5        1.0     0.333447     0.666895     0.764490    Uiso  ? Fe
   Fe6        1.0    -0.000295    -0.000591     0.097373    Uiso  ? Fe
   Fe7        1.0     0.040543     0.666167     0.666827    Uiso  ? Fe
   Fe8        1.0     0.625624     0.666167     0.666827    Uiso  ? Fe
   Fe9        1.0     0.374376     0.333833     0.333173    Uiso  ? Fe
   Fe10       1.0     0.959457     0.333833     0.333173    Uiso  ? Fe
