
#======================================================================
# CRYSTAL DATA
#----------------------------------------------------------------------
data_VESTA_phase_1

_chemical_name_common                  'Sm6 Co51                              '
_cell_length_a                         8.384233
_cell_length_b                         8.372651
_cell_length_c                         12.197231
_cell_angle_alpha                      90.071388
_cell_angle_beta                       90.000000
_cell_angle_gamma                      120.045776
_cell_volume                           741.169067
_space_group_name_H-M_alt              'P 1'
_space_group_IT_number                 1

loop_
_space_group_symop_operation_xyz
   'x, y, z'

loop_
   _atom_site_label
   _atom_site_occupancy
   _atom_site_fract_x
   _atom_site_fract_y
   _atom_site_fract_z
   _atom_site_adp_type
   _atom_site_U_iso_or_equiv
   _atom_site_type_symbol
   Sm1        1.0     0.332241     0.665392     0.011681    Uiso  ? Sm
   Sm2        1.0     0.666851     0.334608    -0.011681    Uiso  ? Sm
   Sm3        1.0     0.335195     0.671433     0.321369    Uiso  ? Sm
   Sm4        1.0    -0.001947    -0.004330     0.344852    Uiso  ? Sm
   Sm5        1.0     0.002383     0.004330     0.655148    Uiso  ? Sm
   Sm6        1.0     0.663763     0.328567     0.678631    Uiso  ? Sm
   Co1        1.0     0.833178     0.167026     0.166489    Uiso  ? Co
   Co2        1.0     0.333176     0.166230     0.165742    Uiso  ? Co
   Co3        1.0     0.833120     0.666422     0.166711    Uiso  ? Co
   Co4        1.0     0.499875     0.499966     0.499954    Uiso  ? Co
   Co5        1.0    -0.000090     0.500034     0.500046    Uiso  ? Co
   Co6        1.0     0.499816     -0.000000     0.500000    Uiso  ? Co
   Co7        1.0     0.166700     0.333578     0.833289    Uiso  ? Co
   Co8        1.0     0.166947     0.833770     0.834258    Uiso  ? Co
   Co9        1.0     0.666152     0.832974     0.833511    Uiso  ? Co
   Co10       1.0     0.000718     0.712980     0.000469    Uiso  ? Co
   Co11       1.0     0.001900     0.290509    -0.000382    Uiso  ? Co
   Co12       1.0     0.291102     -0.000000     0.000000    Uiso  ? Co
   Co13       1.0     0.287738     0.287020    -0.000469    Uiso  ? Co
   Co14       1.0     0.711391     0.709491     0.000382    Uiso  ? Co
   Co15       1.0     0.378649     0.044966     0.333187    Uiso  ? Co
   Co16       1.0     0.666485     0.044690     0.333519    Uiso  ? Co
   Co17       1.0     0.666662     0.622082     0.332806    Uiso  ? Co
   Co18       1.0     0.954476     0.621594     0.333134    Uiso  ? Co
   Co19       1.0     0.044579     0.377918     0.667194    Uiso  ? Co
   Co20       1.0     0.333682     0.955034     0.666812    Uiso  ? Co
   Co21       1.0     0.332881     0.378406     0.666866    Uiso  ? Co
   Co22       1.0     0.621794     0.955310     0.666481    Uiso  ? Co
   Co23       1.0     0.996271     0.499034     0.154188    Uiso  ? Co
   Co24       1.0     0.501244     0.004220     0.156790    Uiso  ? Co
   Co25       1.0     0.502016     0.498671     0.154428    Uiso  ? Co
   Co26       1.0     0.670003     0.834769     0.178460    Uiso  ? Co
   Co27       1.0     0.164676     0.329439     0.174425    Uiso  ? Co
   Co28       1.0     0.164754     0.834999     0.178327    Uiso  ? Co
   Co29       1.0     0.663127     0.832240     0.488111    Uiso  ? Co
   Co30       1.0     0.168514     0.337414     0.492183    Uiso  ? Co
   Co31       1.0     0.169027     0.832118     0.488002    Uiso  ? Co
   Co32       1.0     0.336908     0.167882     0.511998    Uiso  ? Co
   Co33       1.0     0.831099     0.662586     0.507817    Uiso  ? Co
   Co34       1.0     0.830886     0.167760     0.511889    Uiso  ? Co
   Co35       1.0     0.329754     0.165001     0.821673    Uiso  ? Co
   Co36       1.0     0.835236     0.670561     0.825575    Uiso  ? Co
   Co37       1.0     0.835233     0.165231     0.821540    Uiso  ? Co
   Co38       1.0     0.003345     0.501329     0.845572    Uiso  ? Co
   Co39       1.0     0.497024     0.995780     0.843210    Uiso  ? Co
   Co40       1.0     0.497236     0.500966     0.845812    Uiso  ? Co
   Fe1        1.0     0.666218     0.333392     0.235765    Uiso  ? Fe
   Fe2        1.0     0.333436     0.666906     0.569577    Uiso  ? Fe
   Fe3        1.0     0.001165     0.000381     0.902714    Uiso  ? Fe
   Fe4        1.0     0.666530     0.333094     0.430423    Uiso  ? Fe
   Fe5        1.0     0.332825     0.666608     0.764235    Uiso  ? Fe
   Fe6        1.0     0.000785    -0.000381     0.097286    Uiso  ? Fe
   Fe7        1.0     0.041112     0.666491     0.666569    Uiso  ? Fe
   Fe8        1.0     0.625241     0.666558     0.666833    Uiso  ? Fe
   Fe9        1.0     0.374622     0.333509     0.333431    Uiso  ? Fe
   Fe10       1.0     0.958683     0.333442     0.333167    Uiso  ? Fe
   Fe11       1.0     0.713617     0.000000     -0.000000    Uiso  ? Fe
