
#======================================================================
# CRYSTAL DATA
#----------------------------------------------------------------------
data_VESTA_phase_1

_chemical_name_common                  'Sm6 Co51                              '
_cell_length_a                         8.388589
_cell_length_b                         8.374341
_cell_length_c                         12.202670
_cell_angle_alpha                      90.101921
_cell_angle_beta                       90.000000
_cell_angle_gamma                      120.056297
_cell_volume                           741.954867
_space_group_name_H-M_alt              'P 1'
_space_group_IT_number                 1

loop_
_space_group_symop_operation_xyz
   'x, y, z'

loop_
   _atom_site_label
   _atom_site_occupancy
   _atom_site_fract_x
   _atom_site_fract_y
   _atom_site_fract_z
   _atom_site_adp_type
   _atom_site_U_iso_or_equiv
   _atom_site_type_symbol
   Sm1        1.0     0.331319     0.662639     0.011694    Uiso  ? Sm
   Sm2        1.0     0.668681     0.337361    -0.011694    Uiso  ? Sm
   Sm3        1.0     0.335294     0.670589     0.321642    Uiso  ? Sm
   Sm4        1.0    -0.001974    -0.003947     0.345044    Uiso  ? Sm
   Sm5        1.0     0.001974     0.003947     0.654956    Uiso  ? Sm
   Sm6        1.0     0.664706     0.329411     0.678358    Uiso  ? Sm
   Co1        1.0     0.833313     0.166691     0.166622    Uiso  ? Co
   Co2        1.0     0.333377     0.166691     0.166622    Uiso  ? Co
   Co3        1.0     0.833356     0.666714     0.166606    Uiso  ? Co
   Co4        1.0     0.500000     0.500000     0.500000    Uiso  ? Co
   Co5        1.0     0.000000     0.500000     0.500000    Uiso  ? Co
   Co6        1.0     0.500000     0.000000     0.500000    Uiso  ? Co
   Co7        1.0     0.166644     0.333286     0.833394    Uiso  ? Co
   Co8        1.0     0.166687     0.833309     0.833378    Uiso  ? Co
   Co9        1.0     0.666623     0.833309     0.833378    Uiso  ? Co
   Co10       1.0    -0.000470     0.711036     0.000305    Uiso  ? Co
   Co11       1.0     0.000470     0.288964    -0.000305    Uiso  ? Co
   Co12       1.0     0.288495     0.288964    -0.000305    Uiso  ? Co
   Co13       1.0     0.711505     0.711036     0.000305    Uiso  ? Co
   Co14       1.0     0.378228     0.044325     0.333616    Uiso  ? Co
   Co15       1.0     0.666098     0.044325     0.333616    Uiso  ? Co
   Co16       1.0     0.667236     0.622291     0.333091    Uiso  ? Co
   Co17       1.0     0.955057     0.622291     0.333091    Uiso  ? Co
   Co18       1.0     0.044943     0.377709     0.666909    Uiso  ? Co
   Co19       1.0     0.333902     0.955675     0.666384    Uiso  ? Co
   Co20       1.0     0.332764     0.377709     0.666909    Uiso  ? Co
   Co21       1.0     0.621772     0.955675     0.666384    Uiso  ? Co
   Co22       1.0     0.996349     0.498723     0.154861    Uiso  ? Co
   Co23       1.0     0.502175     0.004351     0.158786    Uiso  ? Co
   Co24       1.0     0.502374     0.498723     0.154861    Uiso  ? Co
   Co25       1.0     0.670321     0.834640     0.178548    Uiso  ? Co
   Co26       1.0     0.164457     0.328913     0.174526    Uiso  ? Co
   Co27       1.0     0.164320     0.834640     0.178548    Uiso  ? Co
   Co28       1.0     0.662986     0.832039     0.488110    Uiso  ? Co
   Co29       1.0     0.168776     0.337551     0.492167    Uiso  ? Co
   Co30       1.0     0.169054     0.832039     0.488110    Uiso  ? Co
   Co31       1.0     0.337014     0.167961     0.511890    Uiso  ? Co
   Co32       1.0     0.831224     0.662449     0.507833    Uiso  ? Co
   Co33       1.0     0.830946     0.167961     0.511890    Uiso  ? Co
   Co34       1.0     0.329679     0.165360     0.821452    Uiso  ? Co
   Co35       1.0     0.835543     0.671087     0.825474    Uiso  ? Co
   Co36       1.0     0.835680     0.165360     0.821452    Uiso  ? Co
   Co37       1.0     0.003651     0.501277     0.845139    Uiso  ? Co
   Co38       1.0     0.497825     0.995649     0.841214    Uiso  ? Co
   Co39       1.0     0.497626     0.501277     0.845139    Uiso  ? Co
   Fe1        1.0     0.666786     0.333572     0.236191    Uiso  ? Fe
   Fe2        1.0     0.333409     0.666818     0.569349    Uiso  ? Fe
   Fe3        1.0     0.000081     0.000162     0.902723    Uiso  ? Fe
   Fe4        1.0     0.666591     0.333182     0.430651    Uiso  ? Fe
   Fe5        1.0     0.333214     0.666428     0.763809    Uiso  ? Fe
   Fe6        1.0    -0.000081    -0.000162     0.097277    Uiso  ? Fe
   Fe7        1.0     0.042021     0.666709     0.666627    Uiso  ? Fe
   Fe8        1.0     0.624688     0.666709     0.666627    Uiso  ? Fe
   Fe9        1.0     0.375312     0.333291     0.333373    Uiso  ? Fe
   Fe10       1.0     0.957979     0.333291     0.333373    Uiso  ? Fe
   Fe11       1.0     0.708454     0.000000     -0.000000    Uiso  ? Fe
   Fe12       1.0     0.291546     -0.000000     0.000000    Uiso  ? Fe
