
#======================================================================
# CRYSTAL DATA
#----------------------------------------------------------------------
data_VESTA_phase_1

_chemical_name_common                  'Sm6 Co51                              '
_cell_length_a                         8.394644
_cell_length_b                         8.379307
_cell_length_c                         12.210001
_cell_angle_alpha                      90.079262
_cell_angle_beta                       90.000328
_cell_angle_gamma                      120.037346
_cell_volume                           743.519872
_space_group_name_H-M_alt              'P 1'
_space_group_IT_number                 1

loop_
_space_group_symop_operation_xyz
   'x, y, z'

loop_
   _atom_site_label
   _atom_site_occupancy
   _atom_site_fract_x
   _atom_site_fract_y
   _atom_site_fract_z
   _atom_site_adp_type
   _atom_site_U_iso_or_equiv
   _atom_site_type_symbol
   Sm1        1.0     0.331277     0.662748     0.011883    Uiso  ? Sm
   Sm2        1.0     0.668893     0.337800    -0.011277    Uiso  ? Sm
   Sm3        1.0     0.335424     0.670345     0.321622    Uiso  ? Sm
   Sm4        1.0    -0.002434    -0.003805     0.344665    Uiso  ? Sm
   Sm5        1.0    -0.000183     0.002453     0.654912    Uiso  ? Sm
   Sm6        1.0     0.667271     0.331602     0.678736    Uiso  ? Sm
   Co1        1.0     0.833405     0.166755     0.166472    Uiso  ? Co
   Co2        1.0     0.333283     0.166875     0.166490    Uiso  ? Co
   Co3        1.0     0.833521     0.667048     0.166601    Uiso  ? Co
   Co4        1.0     0.499839     0.500232     0.499967    Uiso  ? Co
   Co5        1.0     0.000257     0.500177     0.500013    Uiso  ? Co
   Co6        1.0     0.500646    -0.000004     0.498847    Uiso  ? Co
   Co7        1.0     0.167047     0.334092     0.833355    Uiso  ? Co
   Co8        1.0     0.166026     0.832886     0.833382    Uiso  ? Co
   Co9        1.0     0.666179     0.833400     0.833282    Uiso  ? Co
   Co10       1.0    -0.000630     0.710833    -0.000022    Uiso  ? Co
   Co11       1.0     0.000724     0.289040    -0.000098    Uiso  ? Co
   Co12       1.0     0.288686     0.289210    -0.000298    Uiso  ? Co
   Co13       1.0     0.711454     0.711143     0.000336    Uiso  ? Co
   Co14       1.0     0.378005     0.043504     0.333011    Uiso  ? Co
   Co15       1.0     0.665916     0.044281     0.333366    Uiso  ? Co
   Co16       1.0     0.667372     0.622187     0.332933    Uiso  ? Co
   Co17       1.0     0.955797     0.623129     0.333157    Uiso  ? Co
   Co18       1.0     0.045716     0.377406     0.666992    Uiso  ? Co
   Co19       1.0     0.332567     0.373044     0.666887    Uiso  ? Co
   Co20       1.0     0.625570     0.957900     0.666106    Uiso  ? Co
   Co21       1.0     0.996210     0.498829     0.154969    Uiso  ? Co
   Co22       1.0     0.502489     0.004792     0.158609    Uiso  ? Co
   Co23       1.0     0.502483     0.498968     0.154952    Uiso  ? Co
   Co24       1.0     0.670446     0.834772     0.178534    Uiso  ? Co
   Co25       1.0     0.164406     0.328841     0.174595    Uiso  ? Co
   Co26       1.0     0.164093     0.834792     0.178408    Uiso  ? Co
   Co27       1.0     0.662319     0.831769     0.487906    Uiso  ? Co
   Co28       1.0     0.168520     0.337804     0.492256    Uiso  ? Co
   Co29       1.0     0.168841     0.831945     0.488860    Uiso  ? Co
   Co30       1.0     0.337161     0.168988     0.509505    Uiso  ? Co
   Co31       1.0     0.831037     0.662460     0.507451    Uiso  ? Co
   Co32       1.0     0.830996     0.168089     0.511351    Uiso  ? Co
   Co33       1.0     0.329106     0.165989     0.823583    Uiso  ? Co
   Co34       1.0     0.835239     0.671502     0.825707    Uiso  ? Co
   Co35       1.0     0.836034     0.165414     0.821874    Uiso  ? Co
   Co36       1.0     0.004351     0.501360     0.845788    Uiso  ? Co
   Co37       1.0     0.498255     0.995797     0.841924    Uiso  ? Co
   Co38       1.0     0.497603     0.502039     0.845419    Uiso  ? Co
   Fe1        1.0     0.667055     0.333859     0.236007    Uiso  ? Fe
   Fe2        1.0     0.333048     0.666128     0.569532    Uiso  ? Fe
   Fe3        1.0    -0.000431     0.000211     0.902940    Uiso  ? Fe
   Fe4        1.0     0.667337     0.333766     0.430514    Uiso  ? Fe
   Fe5        1.0     0.332635     0.665505     0.763710    Uiso  ? Fe
   Fe6        1.0    -0.000370    -0.000020     0.097316    Uiso  ? Fe
   Fe7        1.0     0.038352     0.663659     0.667080    Uiso  ? Fe
   Fe8        1.0     0.622091     0.665790     0.666613    Uiso  ? Fe
   Fe9        1.0     0.376215     0.332960     0.333396    Uiso  ? Fe
   Fe10       1.0     0.957917     0.333596     0.333104    Uiso  ? Fe
   Fe11       1.0     0.708372     0.000072    -0.000106    Uiso  ? Fe
   Fe12       1.0     0.290424    -0.000173     0.000304    Uiso  ? Fe
   Fe13       1.0     0.336140     0.956220     0.666579    Uiso  ? Fe
