
#======================================================================
# CRYSTAL DATA
#----------------------------------------------------------------------
data_VESTA_phase_1

_chemical_name_common                  'Sm6 Co51                              '
_cell_length_a                         8.398686
_cell_length_b                         8.383954
_cell_length_c                         12.212893
_cell_angle_alpha                      90.061417
_cell_angle_beta                       90.014549
_cell_angle_gamma                      120.006126
_cell_volume                           744.701414
_space_group_name_H-M_alt              'P 1'
_space_group_IT_number                 1

loop_
_space_group_symop_operation_xyz
   'x, y, z'

loop_
   _atom_site_label
   _atom_site_occupancy
   _atom_site_fract_x
   _atom_site_fract_y
   _atom_site_fract_z
   _atom_site_adp_type
   _atom_site_U_iso_or_equiv
   _atom_site_type_symbol
   Sm1        1.0     0.331139     0.662956     0.012111    Uiso  ? Sm
   Sm2        1.0     0.669132     0.337643    -0.011101    Uiso  ? Sm
   Sm3        1.0     0.335568     0.670380     0.321337    Uiso  ? Sm
   Sm4        1.0    -0.002451    -0.004209     0.344362    Uiso  ? Sm
   Sm5        1.0    -0.002872     0.000098     0.654777    Uiso  ? Sm
   Sm6        1.0     0.669509     0.333190     0.678507    Uiso  ? Sm
   Co1        1.0     0.833335     0.166635     0.166622    Uiso  ? Co
   Co2        1.0     0.333424     0.166694     0.166626    Uiso  ? Co
   Co3        1.0     0.833411     0.666812     0.166643    Uiso  ? Co
   Co4        1.0     0.500368     0.500506     0.499924    Uiso  ? Co
   Co5        1.0     0.000841     0.500221     0.500014    Uiso  ? Co
   Co6        1.0     0.500485    -0.000510     0.498763    Uiso  ? Co
   Co7        1.0     0.166023     0.333665     0.834575    Uiso  ? Co
   Co8        1.0     0.166242     0.832649     0.833510    Uiso  ? Co
   Co9        1.0     0.665664     0.833040     0.833359    Uiso  ? Co
   Co10       1.0    -0.000790     0.710876     0.000167    Uiso  ? Co
   Co11       1.0     0.000871     0.289230     0.000114    Uiso  ? Co
   Co12       1.0     0.289028     0.290086     0.000330    Uiso  ? Co
   Co13       1.0     0.710550     0.710235     0.000365    Uiso  ? Co
   Co14       1.0     0.377863     0.043458     0.333048    Uiso  ? Co
   Co15       1.0     0.665804     0.044183     0.333247    Uiso  ? Co
   Co16       1.0     0.667537     0.622458     0.333252    Uiso  ? Co
   Co17       1.0     0.956025     0.623108     0.333042    Uiso  ? Co
   Co18       1.0     0.041971     0.374839     0.667217    Uiso  ? Co
   Co19       1.0     0.624590     0.958301     0.666018    Uiso  ? Co
   Co20       1.0     0.996260     0.498733     0.154959    Uiso  ? Co
   Co21       1.0     0.502479     0.004814     0.158690    Uiso  ? Co
   Co22       1.0     0.502677     0.498769     0.155149    Uiso  ? Co
   Co23       1.0     0.670584     0.834715     0.178514    Uiso  ? Co
   Co24       1.0     0.164222     0.328497     0.174740    Uiso  ? Co
   Co25       1.0     0.164017     0.834635     0.178377    Uiso  ? Co
   Co26       1.0     0.661817     0.831676     0.487253    Uiso  ? Co
   Co27       1.0     0.168138     0.337531     0.491539    Uiso  ? Co
   Co28       1.0     0.168763     0.831091     0.488646    Uiso  ? Co
   Co29       1.0     0.337153     0.168030     0.507843    Uiso  ? Co
   Co30       1.0     0.831489     0.662225     0.507077    Uiso  ? Co
   Co31       1.0     0.830925     0.168077     0.510956    Uiso  ? Co
   Co32       1.0     0.329182     0.165147     0.825390    Uiso  ? Co
   Co33       1.0     0.835311     0.671431     0.826250    Uiso  ? Co
   Co34       1.0     0.835663     0.165163     0.822308    Uiso  ? Co
   Co35       1.0     0.004867     0.501606     0.846028    Uiso  ? Co
   Co36       1.0     0.498439     0.995713     0.841736    Uiso  ? Co
   Co37       1.0     0.497800     0.502213     0.844608    Uiso  ? Co
   Fe1        1.0     0.667675     0.333931     0.235845    Uiso  ? Fe
   Fe2        1.0     0.333799     0.666850     0.569592    Uiso  ? Fe
   Fe3        1.0    -0.001242    -0.000521     0.903116    Uiso  ? Fe
   Fe4        1.0     0.667886     0.333822     0.430228    Uiso  ? Fe
   Fe5        1.0     0.332721     0.666305     0.763602    Uiso  ? Fe
   Fe6        1.0    -0.000598    -0.000293     0.097419    Uiso  ? Fe
   Fe7        1.0     0.041108     0.664470     0.667147    Uiso  ? Fe
   Fe8        1.0     0.625642     0.668823     0.666158    Uiso  ? Fe
   Fe9        1.0     0.376966     0.333127     0.333146    Uiso  ? Fe
   Fe10       1.0     0.958189     0.333530     0.333271    Uiso  ? Fe
   Fe11       1.0     0.708323    -0.000150     0.000073    Uiso  ? Fe
   Fe12       1.0     0.289877     0.000209     0.000208    Uiso  ? Fe
   Fe13       1.0     0.336123     0.961331     0.666385    Uiso  ? Fe
   Fe14       1.0     0.330481     0.371953     0.666916    Uiso  ? Fe
