
#======================================================================
# CRYSTAL DATA
#----------------------------------------------------------------------
data_VESTA_phase_1

_chemical_name_common                  'Sm6 Co51                              '
_cell_length_a                         8.401797
_cell_length_b                         8.390913
_cell_length_c                         12.216428
_cell_angle_alpha                      90.030327
_cell_angle_beta                       90.021698
_cell_angle_gamma                      119.983688
_cell_volume                           745.980478
_space_group_name_H-M_alt              'P 1'
_space_group_IT_number                 1

loop_
_space_group_symop_operation_xyz
   'x, y, z'

loop_
   _atom_site_label
   _atom_site_occupancy
   _atom_site_fract_x
   _atom_site_fract_y
   _atom_site_fract_z
   _atom_site_adp_type
   _atom_site_U_iso_or_equiv
   _atom_site_type_symbol
   Sm1        1.0     0.330773     0.663218     0.011801    Uiso  ? Sm
   Sm2        1.0     0.669142     0.337248    -0.011214    Uiso  ? Sm
   Sm3        1.0     0.333537     0.668880     0.321275    Uiso  ? Sm
   Sm4        1.0    -0.000063    -0.002062     0.344748    Uiso  ? Sm
   Sm5        1.0    -0.002194     0.000852     0.655117    Uiso  ? Sm
   Sm6        1.0     0.669052     0.333035     0.678817    Uiso  ? Sm
   Co1        1.0     0.833062     0.167045     0.166625    Uiso  ? Co
   Co2        1.0     0.333992     0.166967     0.166490    Uiso  ? Co
   Co3        1.0     0.834102     0.666789     0.165478    Uiso  ? Co
   Co4        1.0     0.499973     0.500128     0.499951    Uiso  ? Co
   Co5        1.0     0.000465     0.500261     0.499881    Uiso  ? Co
   Co6        1.0     0.500836     0.000175     0.498850    Uiso  ? Co
   Co7        1.0     0.166197     0.333971     0.834497    Uiso  ? Co
   Co8        1.0     0.166215     0.832534     0.833321    Uiso  ? Co
   Co9        1.0     0.665513     0.833245     0.833286    Uiso  ? Co
   Co10       1.0    -0.001029     0.710853    -0.000124    Uiso  ? Co
   Co11       1.0     0.000898     0.289026    -0.000051    Uiso  ? Co
   Co12       1.0     0.289948     0.291191     0.000373    Uiso  ? Co
   Co13       1.0     0.710019     0.709016    -0.000277    Uiso  ? Co
   Co14       1.0     0.378247     0.042716     0.333001    Uiso  ? Co
   Co15       1.0     0.665502     0.039622     0.333283    Uiso  ? Co
   Co16       1.0     0.960214     0.625878     0.332824    Uiso  ? Co
   Co17       1.0     0.041440     0.374680     0.667190    Uiso  ? Co
   Co18       1.0     0.625237     0.958874     0.666109    Uiso  ? Co
   Co19       1.0     0.995646     0.498539     0.154837    Uiso  ? Co
   Co20       1.0     0.502279     0.005039     0.158742    Uiso  ? Co
   Co21       1.0     0.502442     0.498603     0.155880    Uiso  ? Co
   Co22       1.0     0.670936     0.835834     0.176255    Uiso  ? Co
   Co23       1.0     0.163820     0.328304     0.174266    Uiso  ? Co
   Co24       1.0     0.164147     0.834955     0.177796    Uiso  ? Co
   Co25       1.0     0.661716     0.832696     0.489657    Uiso  ? Co
   Co26       1.0     0.167923     0.337971     0.491632    Uiso  ? Co
   Co27       1.0     0.169219     0.831280     0.489168    Uiso  ? Co
   Co28       1.0     0.337864     0.167970     0.508315    Uiso  ? Co
   Co29       1.0     0.832126     0.662582     0.508041    Uiso  ? Co
   Co30       1.0     0.831053     0.168938     0.511187    Uiso  ? Co
   Co31       1.0     0.329010     0.165307     0.825377    Uiso  ? Co
   Co32       1.0     0.835712     0.671905     0.825923    Uiso  ? Co
   Co33       1.0     0.835851     0.165229     0.822317    Uiso  ? Co
   Co34       1.0     0.004851     0.501602     0.846005    Uiso  ? Co
   Co35       1.0     0.498302     0.995498     0.841902    Uiso  ? Co
   Co36       1.0     0.497646     0.502415     0.844404    Uiso  ? Co
   Fe1        1.0     0.667317     0.333279     0.236160    Uiso  ? Fe
   Fe2        1.0     0.333483     0.667202     0.569769    Uiso  ? Fe
   Fe3        1.0    -0.001039    -0.000192     0.902893    Uiso  ? Fe
   Fe4        1.0     0.667240     0.332890     0.430234    Uiso  ? Fe
   Fe5        1.0     0.332329     0.666235     0.763717    Uiso  ? Fe
   Fe6        1.0     0.000111     0.000344     0.097397    Uiso  ? Fe
   Fe7        1.0     0.040296     0.664237     0.667004    Uiso  ? Fe
   Fe8        1.0     0.624925     0.669012     0.666450    Uiso  ? Fe
   Fe9        1.0     0.372875     0.329722     0.333532    Uiso  ? Fe
   Fe10       1.0     0.955529     0.332769     0.333217    Uiso  ? Fe
   Fe11       1.0     0.709134    -0.000639     0.000178    Uiso  ? Fe
   Fe12       1.0     0.289659     0.000585    -0.000167    Uiso  ? Fe
   Fe13       1.0     0.336380     0.960869     0.666678    Uiso  ? Fe
   Fe14       1.0     0.330382     0.372302     0.666412    Uiso  ? Fe
   Fe15       1.0     0.669761     0.622578     0.333567    Uiso  ? Fe
