
#======================================================================
# CRYSTAL DATA
#----------------------------------------------------------------------
data_VESTA_phase_1

_chemical_name_common                  'Sm6 Co51                              '
_cell_length_a                         8.405246
_cell_length_b                         8.395956
_cell_length_c                         12.217760
_cell_angle_alpha                      90.015968
_cell_angle_beta                       90.027260
_cell_angle_gamma                      119.959290
_cell_volume                           747.000142
_space_group_name_H-M_alt              'P 1'
_space_group_IT_number                 1

loop_
_space_group_symop_operation_xyz
   'x, y, z'

loop_
   _atom_site_label
   _atom_site_occupancy
   _atom_site_fract_x
   _atom_site_fract_y
   _atom_site_fract_z
   _atom_site_adp_type
   _atom_site_U_iso_or_equiv
   _atom_site_type_symbol
   Sm1        1.0     0.330285     0.662465     0.011615    Uiso  ? Sm
   Sm2        1.0     0.669715     0.337535    -0.011615    Uiso  ? Sm
   Sm3        1.0     0.331170     0.666691     0.321164    Uiso  ? Sm
   Sm4        1.0     0.001681    -0.000685     0.344528    Uiso  ? Sm
   Sm5        1.0    -0.001681     0.000685     0.655472    Uiso  ? Sm
   Sm6        1.0     0.668830     0.333309     0.678836    Uiso  ? Sm
   Co1        1.0     0.833659     0.167415     0.166489    Uiso  ? Co
   Co2        1.0     0.334565     0.167037     0.166504    Uiso  ? Co
   Co3        1.0     0.833975     0.666185     0.165410    Uiso  ? Co
   Co4        1.0     0.500000     0.500000     0.500000    Uiso  ? Co
   Co5        1.0     -0.000000     0.500000     0.500000    Uiso  ? Co
   Co6        1.0     0.500000     -0.000000     0.500000    Uiso  ? Co
   Co7        1.0     0.166025     0.333815     0.834590    Uiso  ? Co
   Co8        1.0     0.166341     0.832585     0.833511    Uiso  ? Co
   Co9        1.0     0.665435     0.832963     0.833496    Uiso  ? Co
   Co10       1.0    -0.000947     0.711359    -0.000233    Uiso  ? Co
   Co11       1.0     0.000947     0.288641     0.000233    Uiso  ? Co
   Co12       1.0     0.290145     0.290784     0.000201    Uiso  ? Co
   Co13       1.0     0.709855     0.709216    -0.000201    Uiso  ? Co
   Co14       1.0     0.373873     0.040079     0.333157    Uiso  ? Co
   Co15       1.0     0.959348     0.625999     0.332719    Uiso  ? Co
   Co16       1.0     0.040652     0.374001     0.667281    Uiso  ? Co
   Co17       1.0     0.626127     0.959921     0.666843    Uiso  ? Co
   Co18       1.0     0.995269     0.498575     0.154006    Uiso  ? Co
   Co19       1.0     0.501808     0.004682     0.157790    Uiso  ? Co
   Co20       1.0     0.502399     0.497685     0.155614    Uiso  ? Co
   Co21       1.0     0.670924     0.834817     0.174626    Uiso  ? Co
   Co22       1.0     0.164234     0.327966     0.174180    Uiso  ? Co
   Co23       1.0     0.163966     0.834741     0.177647    Uiso  ? Co
   Co24       1.0     0.662061     0.831785     0.491672    Uiso  ? Co
   Co25       1.0     0.167666     0.337374     0.492032    Uiso  ? Co
   Co26       1.0     0.168611     0.831066     0.489617    Uiso  ? Co
   Co27       1.0     0.337939     0.168215     0.508328    Uiso  ? Co
   Co28       1.0     0.832334     0.662626     0.507968    Uiso  ? Co
   Co29       1.0     0.831389     0.168934     0.510383    Uiso  ? Co
   Co30       1.0     0.329076     0.165183     0.825374    Uiso  ? Co
   Co31       1.0     0.835766     0.672034     0.825820    Uiso  ? Co
   Co32       1.0     0.836034     0.165259     0.822353    Uiso  ? Co
   Co33       1.0     0.004731     0.501425     0.845994    Uiso  ? Co
   Co34       1.0     0.498192     0.995318     0.842210    Uiso  ? Co
   Co35       1.0     0.497601     0.502315     0.844386    Uiso  ? Co
   Fe1        1.0     0.668173     0.334122     0.235898    Uiso  ? Fe
   Fe2        1.0     0.332694     0.666562     0.570223    Uiso  ? Fe
   Fe3        1.0    -0.000787    -0.000293     0.902861    Uiso  ? Fe
   Fe4        1.0     0.667306     0.333438     0.429777    Uiso  ? Fe
   Fe5        1.0     0.331827     0.665878     0.764102    Uiso  ? Fe
   Fe6        1.0     0.000787     0.000293     0.097139    Uiso  ? Fe
   Fe7        1.0     0.040138     0.663981     0.667298    Uiso  ? Fe
   Fe8        1.0     0.624534     0.669450     0.666471    Uiso  ? Fe
   Fe9        1.0     0.375466     0.330550     0.333529    Uiso  ? Fe
   Fe10       1.0     0.959862     0.336019     0.332702    Uiso  ? Fe
   Fe11       1.0     0.709436    -0.000528    -0.000061    Uiso  ? Fe
   Fe12       1.0     0.290564     0.000528     0.000061    Uiso  ? Fe
   Fe13       1.0     0.336648     0.960223     0.666721    Uiso  ? Fe
   Fe14       1.0     0.330399     0.372948     0.666578    Uiso  ? Fe
   Fe15       1.0     0.669601     0.627052     0.333422    Uiso  ? Fe
   Fe16       1.0     0.663352     0.039777     0.333279    Uiso  ? Fe
