
#======================================================================
# CRYSTAL DATA
#----------------------------------------------------------------------
data_VESTA_phase_1

_chemical_name_common                  'Sm6 Co51                              '
_cell_length_a                         8.406932
_cell_length_b                         8.402822
_cell_length_c                         12.222501
_cell_angle_alpha                      89.999741
_cell_angle_beta                       90.016243
_cell_angle_gamma                      119.941795
_cell_volume                           748.182972
_space_group_name_H-M_alt              'P 1'
_space_group_IT_number                 1

loop_
_space_group_symop_operation_xyz
   'x, y, z'

loop_
   _atom_site_label
   _atom_site_occupancy
   _atom_site_fract_x
   _atom_site_fract_y
   _atom_site_fract_z
   _atom_site_adp_type
   _atom_site_U_iso_or_equiv
   _atom_site_type_symbol
   Sm1        1.0     0.332425     0.664395     0.011814    Uiso  ? Sm
   Sm2        1.0     0.668040     0.336133    -0.011526    Uiso  ? Sm
   Sm3        1.0     0.331801     0.667633     0.321617    Uiso  ? Sm
   Sm4        1.0     0.001118    -0.001005     0.344706    Uiso  ? Sm
   Sm5        1.0    -0.001277     0.000619     0.655422    Uiso  ? Sm
   Sm6        1.0     0.668119     0.333332     0.678370    Uiso  ? Sm
   Co1        1.0     0.833208     0.166836     0.166585    Uiso  ? Co
   Co2        1.0     0.334026     0.166992     0.166402    Uiso  ? Co
   Co3        1.0     0.834276     0.666887     0.165467    Uiso  ? Co
   Co4        1.0     0.499843     0.499842     0.499948    Uiso  ? Co
   Co5        1.0    -0.000145     0.500192     0.499942    Uiso  ? Co
   Co6        1.0     0.500108     0.000114     0.499957    Uiso  ? Co
   Co7        1.0     0.166862     0.333863     0.833402    Uiso  ? Co
   Co8        1.0     0.166254     0.833053     0.833457    Uiso  ? Co
   Co9        1.0     0.666104     0.833294     0.833272    Uiso  ? Co
   Co10       1.0    -0.000963     0.707346    -0.000208    Uiso  ? Co
   Co11       1.0     0.294825     0.293720    -0.000005    Uiso  ? Co
   Co12       1.0     0.710233     0.708596    -0.000199    Uiso  ? Co
   Co13       1.0     0.373381     0.040174     0.333373    Uiso  ? Co
   Co14       1.0     0.959842     0.626370     0.332784    Uiso  ? Co
   Co15       1.0     0.039759     0.372780     0.666611    Uiso  ? Co
   Co16       1.0     0.627259     0.961005     0.666795    Uiso  ? Co
   Co17       1.0     0.995001     0.499314     0.156347    Uiso  ? Co
   Co18       1.0     0.501462     0.005045     0.158079    Uiso  ? Co
   Co19       1.0     0.502845     0.497998     0.156065    Uiso  ? Co
   Co20       1.0     0.671404     0.834696     0.175030    Uiso  ? Co
   Co21       1.0     0.165034     0.328599     0.175090    Uiso  ? Co
   Co22       1.0     0.164064     0.835543     0.177817    Uiso  ? Co
   Co23       1.0     0.662000     0.831940     0.491727    Uiso  ? Co
   Co24       1.0     0.167892     0.337779     0.491661    Uiso  ? Co
   Co25       1.0     0.168651     0.831181     0.489646    Uiso  ? Co
   Co26       1.0     0.337849     0.168228     0.508281    Uiso  ? Co
   Co27       1.0     0.832176     0.662441     0.508067    Uiso  ? Co
   Co28       1.0     0.831122     0.168943     0.510243    Uiso  ? Co
   Co29       1.0     0.328843     0.164988     0.825447    Uiso  ? Co
   Co30       1.0     0.835600     0.672156     0.825903    Uiso  ? Co
   Co31       1.0     0.835698     0.165196     0.823178    Uiso  ? Co
   Co32       1.0     0.005064     0.502705     0.843409    Uiso  ? Co
   Co33       1.0     0.497968     0.995363     0.841774    Uiso  ? Co
   Co34       1.0     0.497887     0.502432     0.843872    Uiso  ? Co
   Fe1        1.0     0.667474     0.334313     0.236203    Uiso  ? Fe
   Fe2        1.0     0.332873     0.666811     0.570033    Uiso  ? Fe
   Fe3        1.0    -0.001054    -0.000845     0.903186    Uiso  ? Fe
   Fe4        1.0     0.666950     0.333520     0.429899    Uiso  ? Fe
   Fe5        1.0     0.333016     0.666759     0.763734    Uiso  ? Fe
   Fe6        1.0     0.000030    -0.000738     0.097034    Uiso  ? Fe
   Fe7        1.0     0.040597     0.663532     0.667334    Uiso  ? Fe
   Fe8        1.0     0.624850     0.669836     0.666123    Uiso  ? Fe
   Fe9        1.0     0.374354     0.330469     0.333450    Uiso  ? Fe
   Fe10       1.0     0.959319     0.336089     0.333100    Uiso  ? Fe
   Fe11       1.0     0.704716    -0.004061     0.000263    Uiso  ? Fe
   Fe12       1.0     0.288296    -0.000071     0.000043    Uiso  ? Fe
   Fe13       1.0     0.336643     0.959651     0.666529    Uiso  ? Fe
   Fe14       1.0     0.330148     0.373646     0.666379    Uiso  ? Fe
   Fe15       1.0     0.669650     0.626515     0.333682    Uiso  ? Fe
   Fe16       1.0     0.663292     0.040301     0.332848    Uiso  ? Fe
   Fe17       1.0     0.003189     0.287557     0.000536    Uiso  ? Fe
