
#======================================================================
# CRYSTAL DATA
#----------------------------------------------------------------------
data_VESTA_phase_1

_chemical_name_common                  'Sm6 Co51                              '
_cell_length_a                         8.409056
_cell_length_b                         8.409056
_cell_length_c                         12.220313
_cell_angle_alpha                      89.983856
_cell_angle_beta                       90.016144
_cell_angle_gamma                      119.900307
_cell_volume                           749.105190
_space_group_name_H-M_alt              'P 1'
_space_group_IT_number                 1

loop_
_space_group_symop_operation_xyz
   'x, y, z'

loop_
   _atom_site_label
   _atom_site_occupancy
   _atom_site_fract_x
   _atom_site_fract_y
   _atom_site_fract_z
   _atom_site_adp_type
   _atom_site_U_iso_or_equiv
   _atom_site_type_symbol
   Sm1        1.0     0.334218     0.665781     0.011478    Uiso  ? Sm
   Sm2        1.0     0.665781     0.334218    -0.011478    Uiso  ? Sm
   Sm3        1.0     0.332420     0.667580     0.321880    Uiso  ? Sm
   Sm4        1.0     0.000879    -0.000879     0.344798    Uiso  ? Sm
   Sm5        1.0    -0.000879     0.000879     0.655202    Uiso  ? Sm
   Sm6        1.0     0.667580     0.332420     0.678120    Uiso  ? Sm
   Co1        1.0     0.833326     0.166674     0.166650    Uiso  ? Co
   Co2        1.0     0.333271     0.166602     0.166666    Uiso  ? Co
   Co3        1.0     0.833398     0.666729     0.166666    Uiso  ? Co
   Co4        1.0     0.500000     0.500000     0.500000    Uiso  ? Co
   Co5        1.0     -0.000000     0.500000     0.500000    Uiso  ? Co
   Co6        1.0     0.500000     0.000000     0.500000    Uiso  ? Co
   Co7        1.0     0.166602     0.333271     0.833334    Uiso  ? Co
   Co8        1.0     0.166674     0.833326     0.833350    Uiso  ? Co
   Co9        1.0     0.666729     0.833398     0.833334    Uiso  ? Co
   Co10       1.0     0.293768     0.293768     0.000000    Uiso  ? Co
   Co11       1.0     0.706232     0.706232     -0.000000    Uiso  ? Co
   Co12       1.0     0.372609     0.039304     0.333391    Uiso  ? Co
   Co13       1.0     0.960696     0.627391     0.333391    Uiso  ? Co
   Co14       1.0     0.039304     0.372609     0.666609    Uiso  ? Co
   Co15       1.0     0.627391     0.960696     0.666609    Uiso  ? Co
   Co16       1.0     0.995291     0.498553     0.158343    Uiso  ? Co
   Co17       1.0     0.501447     0.004709     0.158343    Uiso  ? Co
   Co18       1.0     0.502236     0.497764     0.156290    Uiso  ? Co
   Co19       1.0     0.671400     0.834779     0.175104    Uiso  ? Co
   Co20       1.0     0.165221     0.328600     0.175104    Uiso  ? Co
   Co21       1.0     0.164458     0.835542     0.177046    Uiso  ? Co
   Co22       1.0     0.662146     0.831968     0.491618    Uiso  ? Co
   Co23       1.0     0.168032     0.337854     0.491618    Uiso  ? Co
   Co24       1.0     0.168838     0.831162     0.489739    Uiso  ? Co
   Co25       1.0     0.337854     0.168032     0.508382    Uiso  ? Co
   Co26       1.0     0.831968     0.662146     0.508382    Uiso  ? Co
   Co27       1.0     0.831162     0.168838     0.510261    Uiso  ? Co
   Co28       1.0     0.328600     0.165221     0.824896    Uiso  ? Co
   Co29       1.0     0.834779     0.671400     0.824896    Uiso  ? Co
   Co30       1.0     0.835542     0.164458     0.822954    Uiso  ? Co
   Co31       1.0     0.004709     0.501447     0.841657    Uiso  ? Co
   Co32       1.0     0.498553     0.995291     0.841657    Uiso  ? Co
   Co33       1.0     0.497764     0.502236     0.843710    Uiso  ? Co
   Fe1        1.0     0.666546     0.333454     0.236473    Uiso  ? Fe
   Fe2        1.0     0.333261     0.666739     0.569897    Uiso  ? Fe
   Fe3        1.0    -0.000083     0.000083     0.903137    Uiso  ? Fe
   Fe4        1.0     0.666739     0.333261     0.430103    Uiso  ? Fe
   Fe5        1.0     0.333454     0.666546     0.763527    Uiso  ? Fe
   Fe6        1.0     0.000083    -0.000083     0.096863    Uiso  ? Fe
   Fe7        1.0     0.040978     0.663376     0.667036    Uiso  ? Fe
   Fe8        1.0     0.625731     0.669920     0.666265    Uiso  ? Fe
   Fe9        1.0     0.374269     0.330080     0.333735    Uiso  ? Fe
   Fe10       1.0     0.959022     0.336624     0.332964    Uiso  ? Fe
   Fe11       1.0     0.707569    -0.003242     0.000390    Uiso  ? Fe
   Fe12       1.0     0.292431     0.003242    -0.000390    Uiso  ? Fe
   Fe13       1.0     0.336624     0.959022     0.667036    Uiso  ? Fe
   Fe14       1.0     0.330080     0.374269     0.666265    Uiso  ? Fe
   Fe15       1.0     0.669920     0.625731     0.333735    Uiso  ? Fe
   Fe16       1.0     0.663376     0.040978     0.332964    Uiso  ? Fe
   Fe17       1.0     0.003242     0.292431     0.000390    Uiso  ? Fe
   Fe18       1.0    -0.003242     0.707569    -0.000390    Uiso  ? Fe
