
#======================================================================
# CRYSTAL DATA
#----------------------------------------------------------------------
data_VESTA_phase_1

_chemical_name_common                  'Sm9 Co27                              '
_cell_length_a                         5.071968
_cell_length_b                         4.992811
_cell_length_c                         24.696135
_cell_angle_alpha                      89.734863
_cell_angle_beta                       90.000000
_cell_angle_gamma                      120.525848
_cell_volume                           538.702872
_space_group_name_H-M_alt              'P 1'
_space_group_IT_number                 1

loop_
_space_group_symop_operation_xyz
   'x, y, z'

loop_
   _atom_site_label
   _atom_site_occupancy
   _atom_site_fract_x
   _atom_site_fract_y
   _atom_site_fract_z
   _atom_site_adp_type
   _atom_site_U_iso_or_equiv
   _atom_site_type_symbol
   Sm1        1.0     0.000000     0.000000     -0.000000    Uiso  ? Sm
   Sm2        1.0     0.664479     0.328958     0.332400    Uiso  ? Sm
   Sm3        1.0     0.335521     0.671042     0.667600    Uiso  ? Sm
   Sm4        1.0     0.665466     0.330932     0.192952    Uiso  ? Sm
   Sm5        1.0     0.000675     0.001350     0.139306    Uiso  ? Sm
   Sm6        1.0     0.333149     0.666298     0.526368    Uiso  ? Sm
   Sm7        1.0     0.666851     0.333702     0.473632    Uiso  ? Sm
   Sm8        1.0     0.999325     0.998650     0.860694    Uiso  ? Sm
   Sm9        1.0     0.334534     0.669068     0.807048    Uiso  ? Sm
   Co1        1.0     0.332913     0.665827     0.165898    Uiso  ? Co
   Co2        1.0     0.000000     0.000000     0.500000    Uiso  ? Co
   Co3        1.0     0.667087     0.334173     0.834102    Uiso  ? Co
   Co4        1.0     0.326583     0.653167     0.331492    Uiso  ? Co
   Co5        1.0     0.337707     0.675415     0.000799    Uiso  ? Co
   Co6        1.0     0.998533     0.997067     0.667162    Uiso  ? Co
   Co7        1.0     0.001467     0.002933     0.332838    Uiso  ? Co
   Co8        1.0     0.662293     0.324585     0.999201    Uiso  ? Co
   Co9        1.0     0.673417     0.346833     0.668508    Uiso  ? Co
   Co10       1.0     0.665253     0.830314     0.252406    Uiso  ? Co
   Co11       1.0     0.166329     0.332657     0.251708    Uiso  ? Co
   Co12       1.0     0.165061     0.830314     0.252406    Uiso  ? Co
   Co13       1.0     0.999807     0.500825     0.079529    Uiso  ? Co
   Co14       1.0     0.499616     0.999231     0.080612    Uiso  ? Co
   Co15       1.0     0.501018     0.500825     0.079529    Uiso  ? Co
   Co16       1.0     0.334675     0.168281     0.587173    Uiso  ? Co
   Co17       1.0     0.833606     0.168281     0.587173    Uiso  ? Co
   Co18       1.0     0.665325     0.831719     0.412827    Uiso  ? Co
   Co19       1.0     0.166394     0.831719     0.412827    Uiso  ? Co
   Co20       1.0     0.000193     0.499175     0.920471    Uiso  ? Co
   Co21       1.0     0.500384     0.000769     0.919388    Uiso  ? Co
   Co22       1.0     0.498982     0.499175     0.920471    Uiso  ? Co
   Co23       1.0     0.334747     0.169686     0.747594    Uiso  ? Co
   Co24       1.0     0.833671     0.667343     0.748292    Uiso  ? Co
   Co25       1.0     0.834939     0.169686     0.747594    Uiso  ? Co
   Fe1        1.0     0.165762     0.331524     0.413244    Uiso  ? Fe
   Fe2        1.0     0.834238     0.668476     0.586756    Uiso  ? Fe
