
#======================================================================
# CRYSTAL DATA
#----------------------------------------------------------------------
data_VESTA_phase_1

_chemical_name_common                  'Sm6 Co51                              '
_cell_length_a                         8.350262
_cell_length_b                         8.350262
_cell_length_c                         12.138711
_cell_angle_alpha                      90.000000
_cell_angle_beta                       90.000000
_cell_angle_gamma                      120.000000
_cell_volume                           732.998987
_space_group_name_H-M_alt              'P 1'
_space_group_IT_number                 1

loop_
_space_group_symop_operation_xyz
   'x, y, z'

loop_
   _atom_site_label
   _atom_site_occupancy
   _atom_site_fract_x
   _atom_site_fract_y
   _atom_site_fract_z
   _atom_site_adp_type
   _atom_site_U_iso_or_equiv
   _atom_site_type_symbol
   Sm1        1.0     0.333333     0.666667     0.010586    Uiso  ? Sm
   Sm2        1.0     0.666667     0.333333    -0.012269    Uiso  ? Sm
   Sm3        1.0     0.333333     0.666667     0.321005    Uiso  ? Sm
   Sm4        1.0     0.000000     0.000000     0.344816    Uiso  ? Sm
   Sm5        1.0     0.000000     0.000000     0.655621    Uiso  ? Sm
   Sm6        1.0     0.666667     0.333333     0.677689    Uiso  ? Sm
   Co1        1.0     0.000000     0.000000     0.095694    Uiso  ? Co
   Co2        1.0     0.666667     0.333333     0.430354    Uiso  ? Co
   Co3        1.0     0.333333     0.666667     0.763812    Uiso  ? Co
   Co4        1.0     0.000000     0.000000     0.904028    Uiso  ? Co
   Co5        1.0     0.834145     0.165855     0.166666    Uiso  ? Co
   Co6        1.0     0.331709     0.165855     0.166666    Uiso  ? Co
   Co7        1.0     0.834145     0.668291     0.166666    Uiso  ? Co
   Co8        1.0     0.501054     0.498946     0.500246    Uiso  ? Co
   Co9        1.0    -0.002108     0.498946     0.500246    Uiso  ? Co
   Co10       1.0     0.501054     0.002108     0.500246    Uiso  ? Co
   Co11       1.0     0.166465     0.332929     0.833351    Uiso  ? Co
   Co12       1.0     0.166465     0.833535     0.833351    Uiso  ? Co
   Co13       1.0     0.667071     0.833535     0.833351    Uiso  ? Co
   Co14       1.0     0.000115     0.713785    -0.000019    Uiso  ? Co
   Co15       1.0     0.000115     0.286330    -0.000019    Uiso  ? Co
   Co16       1.0     0.286215    -0.000115    -0.000019    Uiso  ? Co
   Co17       1.0     0.286215     0.286330    -0.000019    Uiso  ? Co
   Co18       1.0     0.713670     0.713785    -0.000019    Uiso  ? Co
   Co19       1.0     0.713670    -0.000115    -0.000019    Uiso  ? Co
   Co20       1.0     0.379361     0.333003     0.333603    Uiso  ? Co
   Co21       1.0     0.379361     0.046357     0.333603    Uiso  ? Co
   Co22       1.0     0.666997     0.046357     0.333603    Uiso  ? Co
   Co23       1.0     0.666997     0.620639     0.333603    Uiso  ? Co
   Co24       1.0     0.953643     0.333003     0.333603    Uiso  ? Co
   Co25       1.0     0.953643     0.620639     0.333603    Uiso  ? Co
   Co26       1.0     0.046347     0.666653     0.667065    Uiso  ? Co
   Co27       1.0     0.046347     0.379695     0.667065    Uiso  ? Co
   Co28       1.0     0.333347     0.953653     0.667065    Uiso  ? Co
   Co29       1.0     0.333347     0.379695     0.667065    Uiso  ? Co
   Co30       1.0     0.620305     0.666653     0.667065    Uiso  ? Co
   Co31       1.0     0.620305     0.953653     0.667065    Uiso  ? Co
   Co32       1.0     0.996358     0.498179     0.153552    Uiso  ? Co
   Co33       1.0     0.501821     0.003643     0.153552    Uiso  ? Co
   Co34       1.0     0.501821     0.498179     0.153552    Uiso  ? Co
   Co35       1.0     0.671038     0.835519     0.178932    Uiso  ? Co
   Co36       1.0     0.164481     0.328962     0.178932    Uiso  ? Co
   Co37       1.0     0.164481     0.835519     0.178932    Uiso  ? Co
   Co38       1.0     0.662651     0.831325     0.486782    Uiso  ? Co
   Co39       1.0     0.168675     0.337349     0.486782    Uiso  ? Co
   Co40       1.0     0.168675     0.831325     0.486782    Uiso  ? Co
   Co41       1.0     0.337357     0.168679     0.512517    Uiso  ? Co
   Co42       1.0     0.831321     0.662643     0.512517    Uiso  ? Co
   Co43       1.0     0.831321     0.168679     0.512517    Uiso  ? Co
   Co44       1.0     0.328750     0.164375     0.820415    Uiso  ? Co
   Co45       1.0     0.835625     0.671250     0.820415    Uiso  ? Co
   Co46       1.0     0.835625     0.164375     0.820415    Uiso  ? Co
   Co47       1.0     0.004486     0.502243     0.846091    Uiso  ? Co
   Co48       1.0     0.497757     0.995514     0.846091    Uiso  ? Co
   Co49       1.0     0.497757     0.502243     0.846091    Uiso  ? Co
   Fe1        1.0     0.666667     0.333333     0.237832    Uiso  ? Fe
   Fe2        1.0     0.333333     0.666667     0.571280    Uiso  ? Fe
