
#======================================================================
# CRYSTAL DATA
#----------------------------------------------------------------------
data_VESTA_phase_1

_chemical_name_common                  'Sm9 Co27                              '
_cell_length_a                         5.087784
_cell_length_b                         4.936947
_cell_length_c                         24.702328
_cell_angle_alpha                      89.922783
_cell_angle_beta                       89.820930
_cell_angle_gamma                      119.366516
_cell_volume                           540.739573
_space_group_name_H-M_alt              'P 1'
_space_group_IT_number                 1

loop_
_space_group_symop_operation_xyz
   'x, y, z'

loop_
   _atom_site_label
   _atom_site_occupancy
   _atom_site_fract_x
   _atom_site_fract_y
   _atom_site_fract_z
   _atom_site_adp_type
   _atom_site_U_iso_or_equiv
   _atom_site_type_symbol
   Sm1        1.0    -0.003635     0.001888    -0.000446    Uiso  ? Sm
   Sm2        1.0     0.664338     0.322594     0.333032    Uiso  ? Sm
   Sm3        1.0     0.338470     0.676453     0.667406    Uiso  ? Sm
   Sm4        1.0     0.663387     0.324053     0.193719    Uiso  ? Sm
   Sm5        1.0    -0.000025    -0.005053     0.140643    Uiso  ? Sm
   Sm6        1.0     0.333186     0.666211     0.526458    Uiso  ? Sm
   Sm7        1.0     0.668334     0.332130     0.473923    Uiso  ? Sm
   Sm8        1.0    -0.001464     0.005489     0.860245    Uiso  ? Sm
   Sm9        1.0     0.336275     0.675166     0.806761    Uiso  ? Sm
   Co1        1.0     0.333107     0.658417     0.165633    Uiso  ? Co
   Co2        1.0     0.000831    -0.000730     0.500337    Uiso  ? Co
   Co3        1.0     0.667491     0.340751     0.833531    Uiso  ? Co
   Co4        1.0     0.297669     0.640008     0.332627    Uiso  ? Co
   Co5        1.0     0.362064     0.688291    -0.000525    Uiso  ? Co
   Co6        1.0    -0.027653    -0.003526     0.667754    Uiso  ? Co
   Co7        1.0     0.031113     0.003254     0.332252    Uiso  ? Co
   Co8        1.0     0.631040     0.317317     0.998696    Uiso  ? Co
   Co9        1.0     0.704423     0.358283     0.668051    Uiso  ? Co
   Co10       1.0     0.664842     0.823836     0.255137    Uiso  ? Co
   Co11       1.0     0.167853     0.328137     0.252008    Uiso  ? Co
   Co12       1.0     0.167631     0.822255     0.251600    Uiso  ? Co
   Co13       1.0    -0.003559     0.496626     0.077787    Uiso  ? Co
   Co14       1.0     0.498577    -0.001166     0.081020    Uiso  ? Co
   Co15       1.0     0.338203     0.171527     0.589122    Uiso  ? Co
   Co16       1.0     0.836179     0.171213     0.585974    Uiso  ? Co
   Co17       1.0     0.663957     0.826829     0.411207    Uiso  ? Co
   Co18       1.0     0.165301     0.826977     0.414429    Uiso  ? Co
   Co19       1.0    -0.001646     0.504908     0.921587    Uiso  ? Co
   Co20       1.0     0.499331     0.005633     0.918207    Uiso  ? Co
   Co21       1.0     0.500389     0.503445     0.918824    Uiso  ? Co
   Co22       1.0     0.337044     0.175859     0.745346    Uiso  ? Co
   Co23       1.0     0.834321     0.672462     0.748289    Uiso  ? Co
   Co24       1.0     0.835121     0.175779     0.748684    Uiso  ? Co
   Fe1        1.0     0.162197     0.322163     0.413812    Uiso  ? Fe
   Fe2        1.0     0.838759     0.674782     0.586653    Uiso  ? Fe
   Fe3        1.0     0.496548     0.497738     0.080218    Uiso  ? Fe
