
#======================================================================
# CRYSTAL DATA
#----------------------------------------------------------------------
data_VESTA_phase_1

_chemical_name_common                  'Sm6 Co51                              '
_cell_length_a                         8.357433
_cell_length_b                         8.357433
_cell_length_c                         12.140370
_cell_angle_alpha                      90.000000
_cell_angle_beta                       90.000000
_cell_angle_gamma                      120.000000
_cell_volume                           734.358977
_space_group_name_H-M_alt              'P 1'
_space_group_IT_number                 1

loop_
_space_group_symop_operation_xyz
   'x, y, z'

loop_
   _atom_site_label
   _atom_site_occupancy
   _atom_site_fract_x
   _atom_site_fract_y
   _atom_site_fract_z
   _atom_site_adp_type
   _atom_site_U_iso_or_equiv
   _atom_site_type_symbol
   Sm1        1.0     0.333333     0.666667     0.010964    Uiso  ? Sm
   Sm2        1.0     0.666667     0.333333    -0.011614    Uiso  ? Sm
   Sm3        1.0     0.333333     0.666667     0.320599    Uiso  ? Sm
   Sm4        1.0     -0.000000     0.000000     0.344023    Uiso  ? Sm
   Sm5        1.0     -0.000000     0.000000     0.654601    Uiso  ? Sm
   Sm6        1.0     0.666667     0.333333     0.678858    Uiso  ? Sm
   Co1        1.0     -0.000000     0.000000     0.097040    Uiso  ? Co
   Co2        1.0     0.333333     0.666667     0.763704    Uiso  ? Co
   Co3        1.0     0.834309     0.165691     0.166808    Uiso  ? Co
   Co4        1.0     0.331382     0.165691     0.166808    Uiso  ? Co
   Co5        1.0     0.834309     0.668618     0.166808    Uiso  ? Co
   Co6        1.0     0.499783     0.500217     0.499979    Uiso  ? Co
   Co7        1.0     0.000433     0.500217     0.499979    Uiso  ? Co
   Co8        1.0     0.499783    -0.000433     0.499979    Uiso  ? Co
   Co9        1.0     0.167574     0.335146     0.833521    Uiso  ? Co
   Co10       1.0     0.167574     0.832426     0.833521    Uiso  ? Co
   Co11       1.0     0.664854     0.832426     0.833521    Uiso  ? Co
   Co12       1.0     0.000256     0.713163     0.000275    Uiso  ? Co
   Co13       1.0     0.000256     0.287093     0.000275    Uiso  ? Co
   Co14       1.0     0.286837    -0.000256     0.000275    Uiso  ? Co
   Co15       1.0     0.286837     0.287093     0.000275    Uiso  ? Co
   Co16       1.0     0.712907     0.713163     0.000275    Uiso  ? Co
   Co17       1.0     0.712907    -0.000256     0.000275    Uiso  ? Co
   Co18       1.0     0.379272     0.333070     0.333356    Uiso  ? Co
   Co19       1.0     0.379272     0.046201     0.333356    Uiso  ? Co
   Co20       1.0     0.666930     0.046201     0.333356    Uiso  ? Co
   Co21       1.0     0.666930     0.620728     0.333356    Uiso  ? Co
   Co22       1.0     0.953799     0.333070     0.333356    Uiso  ? Co
   Co23       1.0     0.953799     0.620728     0.333356    Uiso  ? Co
   Co24       1.0     0.046318     0.666562     0.667017    Uiso  ? Co
   Co25       1.0     0.046318     0.379757     0.667017    Uiso  ? Co
   Co26       1.0     0.333438     0.953682     0.667017    Uiso  ? Co
   Co27       1.0     0.333438     0.379757     0.667017    Uiso  ? Co
   Co28       1.0     0.620243     0.666562     0.667017    Uiso  ? Co
   Co29       1.0     0.620243     0.953682     0.667017    Uiso  ? Co
   Co30       1.0     0.996419     0.498210     0.153503    Uiso  ? Co
   Co31       1.0     0.501790     0.003581     0.153503    Uiso  ? Co
   Co32       1.0     0.501790     0.498210     0.153503    Uiso  ? Co
   Co33       1.0     0.670808     0.835403     0.178995    Uiso  ? Co
   Co34       1.0     0.164597     0.329192     0.178995    Uiso  ? Co
   Co35       1.0     0.164597     0.835403     0.178995    Uiso  ? Co
   Co36       1.0     0.663198     0.831599     0.487113    Uiso  ? Co
   Co37       1.0     0.168402     0.336802     0.487113    Uiso  ? Co
   Co38       1.0     0.168402     0.831599     0.487113    Uiso  ? Co
   Co39       1.0     0.336300     0.168150     0.512530    Uiso  ? Co
   Co40       1.0     0.831850     0.663700     0.512530    Uiso  ? Co
   Co41       1.0     0.831850     0.168150     0.512530    Uiso  ? Co
   Co42       1.0     0.329386     0.164694     0.820325    Uiso  ? Co
   Co43       1.0     0.835306     0.670614     0.820325    Uiso  ? Co
   Co44       1.0     0.835306     0.164694     0.820325    Uiso  ? Co
   Co45       1.0     0.004319     0.502160     0.845722    Uiso  ? Co
   Co46       1.0     0.497840     0.995681     0.845722    Uiso  ? Co
   Co47       1.0     0.497840     0.502160     0.845722    Uiso  ? Co
   Fe1        1.0     0.666667     0.333333     0.236194    Uiso  ? Fe
   Fe2        1.0     0.333333     0.666667     0.570929    Uiso  ? Fe
   Fe3        1.0     -0.000000     0.000000     0.904556    Uiso  ? Fe
   Fe4        1.0     0.666667     0.333333     0.430768    Uiso  ? Fe
