
#======================================================================
# CRYSTAL DATA
#----------------------------------------------------------------------
data_VESTA_phase_1

_chemical_name_common                  'Sm6 Co51                              '
_cell_length_a                         8.360590
_cell_length_b                         8.360590
_cell_length_c                         12.141399
_cell_angle_alpha                      90.000000
_cell_angle_beta                       90.000000
_cell_angle_gamma                      120.000000
_cell_volume                           734.976118
_space_group_name_H-M_alt              'P 1'
_space_group_IT_number                 1

loop_
_space_group_symop_operation_xyz
   'x, y, z'

loop_
   _atom_site_label
   _atom_site_occupancy
   _atom_site_fract_x
   _atom_site_fract_y
   _atom_site_fract_z
   _atom_site_adp_type
   _atom_site_U_iso_or_equiv
   _atom_site_type_symbol
   Sm1        1.0     0.333333     0.666667     0.012034    Uiso  ? Sm
   Sm2        1.0     0.666667     0.333333    -0.011524    Uiso  ? Sm
   Sm3        1.0     0.333333     0.666667     0.321213    Uiso  ? Sm
   Sm4        1.0     -0.000000     0.000000     0.344118    Uiso  ? Sm
   Sm5        1.0     -0.000000     -0.000000     0.654233    Uiso  ? Sm
   Sm6        1.0     0.666667     0.333333     0.678649    Uiso  ? Sm
   Co1        1.0     -0.000000     0.000000     0.097105    Uiso  ? Co
   Co2        1.0     0.834467     0.165534     0.166833    Uiso  ? Co
   Co3        1.0     0.331066     0.165534     0.166833    Uiso  ? Co
   Co4        1.0     0.834467     0.668934     0.166833    Uiso  ? Co
   Co5        1.0     0.499919     0.500081     0.499967    Uiso  ? Co
   Co6        1.0     0.000162     0.500081     0.499967    Uiso  ? Co
   Co7        1.0     0.499919    -0.000162     0.499967    Uiso  ? Co
   Co8        1.0     0.166557     0.333114     0.833381    Uiso  ? Co
   Co9        1.0     0.166557     0.833443     0.833381    Uiso  ? Co
   Co10       1.0     0.666886     0.833443     0.833381    Uiso  ? Co
   Co11       1.0     0.000133     0.712982     0.000293    Uiso  ? Co
   Co12       1.0     0.000133     0.287151     0.000293    Uiso  ? Co
   Co13       1.0     0.287018    -0.000133     0.000293    Uiso  ? Co
   Co14       1.0     0.287018     0.287151     0.000293    Uiso  ? Co
   Co15       1.0     0.712849     0.712982     0.000293    Uiso  ? Co
   Co16       1.0     0.712849    -0.000133     0.000293    Uiso  ? Co
   Co17       1.0     0.379348     0.333054     0.333316    Uiso  ? Co
   Co18       1.0     0.379348     0.046292     0.333316    Uiso  ? Co
   Co19       1.0     0.666946     0.046292     0.333316    Uiso  ? Co
   Co20       1.0     0.666946     0.620652     0.333316    Uiso  ? Co
   Co21       1.0     0.953708     0.333054     0.333316    Uiso  ? Co
   Co22       1.0     0.953708     0.620652     0.333316    Uiso  ? Co
   Co23       1.0     0.046124     0.666711     0.666680    Uiso  ? Co
   Co24       1.0     0.046124     0.379415     0.666680    Uiso  ? Co
   Co25       1.0     0.333289     0.953876     0.666680    Uiso  ? Co
   Co26       1.0     0.333289     0.379415     0.666680    Uiso  ? Co
   Co27       1.0     0.620585     0.666711     0.666680    Uiso  ? Co
   Co28       1.0     0.620585     0.953876     0.666680    Uiso  ? Co
   Co29       1.0     0.996182     0.498091     0.153673    Uiso  ? Co
   Co30       1.0     0.501909     0.003818     0.153673    Uiso  ? Co
   Co31       1.0     0.501909     0.498091     0.153673    Uiso  ? Co
   Co32       1.0     0.670947     0.835473     0.179100    Uiso  ? Co
   Co33       1.0     0.164527     0.329053     0.179100    Uiso  ? Co
   Co34       1.0     0.164527     0.835473     0.179100    Uiso  ? Co
   Co35       1.0     0.663459     0.831729     0.487198    Uiso  ? Co
   Co36       1.0     0.168271     0.336541     0.487198    Uiso  ? Co
   Co37       1.0     0.168271     0.831729     0.487198    Uiso  ? Co
   Co38       1.0     0.336453     0.168227     0.512573    Uiso  ? Co
   Co39       1.0     0.831773     0.663547     0.512573    Uiso  ? Co
   Co40       1.0     0.831773     0.168227     0.512573    Uiso  ? Co
   Co41       1.0     0.329807     0.164904     0.820814    Uiso  ? Co
   Co42       1.0     0.835096     0.670193     0.820814    Uiso  ? Co
   Co43       1.0     0.835096     0.164904     0.820814    Uiso  ? Co
   Co44       1.0     0.003114     0.501557     0.845731    Uiso  ? Co
   Co45       1.0     0.498443     0.996886     0.845731    Uiso  ? Co
   Co46       1.0     0.498443     0.501557     0.845731    Uiso  ? Co
   Fe1        1.0     0.666667     0.333333     0.236131    Uiso  ? Fe
   Fe2        1.0     0.333333     0.666667     0.569233    Uiso  ? Fe
   Fe3        1.0     -0.000000     0.000000     0.904485    Uiso  ? Fe
   Fe4        1.0     0.666667     0.333333     0.430704    Uiso  ? Fe
   Fe5        1.0     0.333333     0.666667     0.764068    Uiso  ? Fe
