
#======================================================================
# CRYSTAL DATA
#----------------------------------------------------------------------
data_VESTA_phase_1

_chemical_name_common                  'Sm6 Co51                              '
_cell_length_a                         8.365407
_cell_length_b                         8.365407
_cell_length_c                         12.142817
_cell_angle_alpha                      90.000000
_cell_angle_beta                       90.000000
_cell_angle_gamma                      120.000000
_cell_volume                           735.909171
_space_group_name_H-M_alt              'P 1'
_space_group_IT_number                 1

loop_
_space_group_symop_operation_xyz
   'x, y, z'

loop_
   _atom_site_label
   _atom_site_occupancy
   _atom_site_fract_x
   _atom_site_fract_y
   _atom_site_fract_z
   _atom_site_adp_type
   _atom_site_U_iso_or_equiv
   _atom_site_type_symbol
   Sm1        1.0     0.333333     0.666667     0.011885    Uiso  ? Sm
   Sm2        1.0     0.666667     0.333333    -0.011885    Uiso  ? Sm
   Sm3        1.0     0.333333     0.666667     0.321237    Uiso  ? Sm
   Sm4        1.0     0.000000     0.000000     0.345218    Uiso  ? Sm
   Sm5        1.0     0.000000     0.000000     0.654782    Uiso  ? Sm
   Sm6        1.0     0.666667     0.333333     0.678763    Uiso  ? Sm
   Co1        1.0     0.833390     0.166610     0.166646    Uiso  ? Co
   Co2        1.0     0.333218     0.166610     0.166646    Uiso  ? Co
   Co3        1.0     0.833390     0.666782     0.166646    Uiso  ? Co
   Co4        1.0     0.500000     0.500000     0.500000    Uiso  ? Co
   Co5        1.0     0.000000     0.500000     0.500000    Uiso  ? Co
   Co6        1.0     0.500000     0.000000     0.500000    Uiso  ? Co
   Co7        1.0     0.166610     0.333218     0.833354    Uiso  ? Co
   Co8        1.0     0.166610     0.833390     0.833354    Uiso  ? Co
   Co9        1.0     0.666782     0.833390     0.833354    Uiso  ? Co
   Co10       1.0     0.000000     0.712682     -0.000000    Uiso  ? Co
   Co11       1.0     -0.000000     0.287318     -0.000000    Uiso  ? Co
   Co12       1.0     0.287318     0.000000     -0.000000    Uiso  ? Co
   Co13       1.0     0.287318     0.287318     -0.000000    Uiso  ? Co
   Co14       1.0     0.712682     0.712682     -0.000000    Uiso  ? Co
   Co15       1.0     0.712682     -0.000000     -0.000000    Uiso  ? Co
   Co16       1.0     0.379471     0.333295     0.333382    Uiso  ? Co
   Co17       1.0     0.379471     0.046175     0.333382    Uiso  ? Co
   Co18       1.0     0.666705     0.046175     0.333382    Uiso  ? Co
   Co19       1.0     0.666705     0.620529     0.333382    Uiso  ? Co
   Co20       1.0     0.953825     0.333295     0.333382    Uiso  ? Co
   Co21       1.0     0.953825     0.620529     0.333382    Uiso  ? Co
   Co22       1.0     0.046175     0.666705     0.666618    Uiso  ? Co
   Co23       1.0     0.046175     0.379471     0.666618    Uiso  ? Co
   Co24       1.0     0.333295     0.953825     0.666618    Uiso  ? Co
   Co25       1.0     0.333295     0.379471     0.666618    Uiso  ? Co
   Co26       1.0     0.620529     0.666705     0.666618    Uiso  ? Co
   Co27       1.0     0.620529     0.953825     0.666618    Uiso  ? Co
   Co28       1.0     0.996739     0.498369     0.154201    Uiso  ? Co
   Co29       1.0     0.501631     0.003261     0.154201    Uiso  ? Co
   Co30       1.0     0.501631     0.498369     0.154201    Uiso  ? Co
   Co31       1.0     0.669918     0.834959     0.179101    Uiso  ? Co
   Co32       1.0     0.165041     0.330082     0.179101    Uiso  ? Co
   Co33       1.0     0.165041     0.834959     0.179101    Uiso  ? Co
   Co34       1.0     0.663376     0.831688     0.487305    Uiso  ? Co
   Co35       1.0     0.168313     0.336624     0.487305    Uiso  ? Co
   Co36       1.0     0.168313     0.831688     0.487305    Uiso  ? Co
   Co37       1.0     0.336624     0.168313     0.512695    Uiso  ? Co
   Co38       1.0     0.831688     0.663376     0.512695    Uiso  ? Co
   Co39       1.0     0.831688     0.168313     0.512695    Uiso  ? Co
   Co40       1.0     0.330082     0.165041     0.820899    Uiso  ? Co
   Co41       1.0     0.834959     0.669918     0.820899    Uiso  ? Co
   Co42       1.0     0.834959     0.165041     0.820899    Uiso  ? Co
   Co43       1.0     0.003261     0.501631     0.845799    Uiso  ? Co
   Co44       1.0     0.498369     0.996739     0.845799    Uiso  ? Co
   Co45       1.0     0.498369     0.501631     0.845799    Uiso  ? Co
   Fe1        1.0     0.666667     0.333333     0.236008    Uiso  ? Fe
   Fe2        1.0     0.333333     0.666667     0.569118    Uiso  ? Fe
   Fe3        1.0     0.000000     0.000000     0.902489    Uiso  ? Fe
   Fe4        1.0     0.666667     0.333333     0.430882    Uiso  ? Fe
   Fe5        1.0     0.333333     0.666667     0.763992    Uiso  ? Fe
   Fe6        1.0     0.000000     0.000000     0.097511    Uiso  ? Fe
