
#======================================================================
# CRYSTAL DATA
#----------------------------------------------------------------------
data_VESTA_phase_1

_chemical_name_common                  'Sm9 Co27                              '
_cell_length_a                         5.130333
_cell_length_b                         4.901569
_cell_length_c                         24.774492
_cell_angle_alpha                      89.923584
_cell_angle_beta                       89.860237
_cell_angle_gamma                      119.048904
_cell_volume                           544.623013
_space_group_name_H-M_alt              'P 1'
_space_group_IT_number                 1

loop_
_space_group_symop_operation_xyz
   'x, y, z'

loop_
   _atom_site_label
   _atom_site_occupancy
   _atom_site_fract_x
   _atom_site_fract_y
   _atom_site_fract_z
   _atom_site_adp_type
   _atom_site_U_iso_or_equiv
   _atom_site_type_symbol
   Sm1        1.0     -0.000000     -0.000000     0.000000    Uiso  ? Sm
   Sm2        1.0     0.665629     0.328052     0.333431    Uiso  ? Sm
   Sm3        1.0     0.334371     0.671948     0.666569    Uiso  ? Sm
   Sm4        1.0     0.663316     0.327094     0.192985    Uiso  ? Sm
   Sm5        1.0     0.000840     0.997330     0.140559    Uiso  ? Sm
   Sm6        1.0     0.331348     0.665559     0.526248    Uiso  ? Sm
   Sm7        1.0     0.668652     0.334441     0.473752    Uiso  ? Sm
   Sm8        1.0     0.999160     0.002670     0.859441    Uiso  ? Sm
   Sm9        1.0     0.336684     0.672906     0.807015    Uiso  ? Sm
   Co1        1.0     0.332294     0.660943     0.166693    Uiso  ? Co
   Co2        1.0     -0.000000     -0.000000     0.500000    Uiso  ? Co
   Co3        1.0     0.667706     0.339057     0.833306    Uiso  ? Co
   Co4        1.0     0.292666     0.647043     0.333521    Uiso  ? Co
   Co5        1.0     0.373739     0.693636     0.999774    Uiso  ? Co
   Co6        1.0     0.961239     0.991583     0.666829    Uiso  ? Co
   Co7        1.0     0.038761     0.008417     0.333171    Uiso  ? Co
   Co8        1.0     0.626261     0.306364     0.000226    Uiso  ? Co
   Co9        1.0     0.707334     0.352957     0.666479    Uiso  ? Co
   Co10       1.0     0.665408     0.827724     0.255448    Uiso  ? Co
   Co11       1.0     0.166900     0.826962     0.251374    Uiso  ? Co
   Co12       1.0     0.998957     0.497268     0.077970    Uiso  ? Co
   Co13       1.0     0.498016     0.995648     0.082137    Uiso  ? Co
   Co14       1.0     0.334973     0.168951     0.588741    Uiso  ? Co
   Co15       1.0     0.833988     0.169205     0.584742    Uiso  ? Co
   Co16       1.0     0.665027     0.831049     0.411259    Uiso  ? Co
   Co17       1.0     0.166012     0.830795     0.415258    Uiso  ? Co
   Co18       1.0     0.001043     0.502732     0.922030    Uiso  ? Co
   Co19       1.0     0.501984     0.004352     0.917863    Uiso  ? Co
   Co20       1.0     0.334592     0.172277     0.744552    Uiso  ? Co
   Co21       1.0     0.833100     0.173038     0.748626    Uiso  ? Co
   Fe1        1.0     0.162371     0.325837     0.413848    Uiso  ? Fe
   Fe2        1.0     0.837629     0.674163     0.586152    Uiso  ? Fe
   Fe3        1.0     0.497184     0.497779     0.080234    Uiso  ? Fe
   Fe4        1.0     0.832884     0.670578     0.747009    Uiso  ? Fe
   Fe5        1.0     0.502816     0.502221     0.919766    Uiso  ? Fe
   Fe6        1.0     0.167116     0.329421     0.252991    Uiso  ? Fe
