
#======================================================================
# CRYSTAL DATA
#----------------------------------------------------------------------
data_VESTA_phase_1

_chemical_name_common                  'Sm6 Co51                              '
_cell_length_a                         8.367952
_cell_length_b                         8.366314
_cell_length_c                         12.154761
_cell_angle_alpha                      90.004013
_cell_angle_beta                       89.998955
_cell_angle_gamma                      120.006706
_cell_volume                           736.887295
_space_group_name_H-M_alt              'P 1'
_space_group_IT_number                 1

loop_
_space_group_symop_operation_xyz
   'x, y, z'

loop_
   _atom_site_label
   _atom_site_occupancy
   _atom_site_fract_x
   _atom_site_fract_y
   _atom_site_fract_z
   _atom_site_adp_type
   _atom_site_U_iso_or_equiv
   _atom_site_type_symbol
   Sm1        1.0     0.333383     0.666672     0.012139    Uiso  ? Sm
   Sm2        1.0     0.666113     0.332751    -0.011457    Uiso  ? Sm
   Sm3        1.0     0.333380     0.666652     0.321197    Uiso  ? Sm
   Sm4        1.0     0.000041     0.000604     0.344740    Uiso  ? Sm
   Sm5        1.0     0.000830     0.002673     0.654566    Uiso  ? Sm
   Sm6        1.0     0.664823     0.330664     0.678839    Uiso  ? Sm
   Co1        1.0     0.833240     0.166610     0.166543    Uiso  ? Co
   Co2        1.0     0.333113     0.166647     0.166751    Uiso  ? Co
   Co3        1.0     0.833150     0.666764     0.166652    Uiso  ? Co
   Co4        1.0     0.499579     0.500334     0.499947    Uiso  ? Co
   Co5        1.0    -0.000012     0.499560     0.499149    Uiso  ? Co
   Co6        1.0     0.499472    -0.000813     0.499966    Uiso  ? Co
   Co7        1.0     0.166836     0.333952     0.833374    Uiso  ? Co
   Co8        1.0     0.167058     0.833812     0.834200    Uiso  ? Co
   Co9        1.0     0.666140     0.833068     0.833387    Uiso  ? Co
   Co10       1.0     0.000147     0.712692     0.000433    Uiso  ? Co
   Co11       1.0    -0.000130     0.287458    -0.000168    Uiso  ? Co
   Co12       1.0     0.287318    -0.000128    -0.000018    Uiso  ? Co
   Co13       1.0     0.287077     0.287180     0.000125    Uiso  ? Co
   Co14       1.0     0.712633     0.712606     0.000036    Uiso  ? Co
   Co15       1.0     0.712591    -0.000178     0.000206    Uiso  ? Co
   Co16       1.0     0.379653     0.333556     0.333098    Uiso  ? Co
   Co17       1.0     0.379153     0.046018     0.333532    Uiso  ? Co
   Co18       1.0     0.666543     0.046331     0.333195    Uiso  ? Co
   Co19       1.0     0.666755     0.620647     0.333281    Uiso  ? Co
   Co20       1.0     0.953974     0.333396     0.333355    Uiso  ? Co
   Co21       1.0     0.954010     0.620492     0.332862    Uiso  ? Co
   Co22       1.0     0.045201     0.377142     0.666459    Uiso  ? Co
   Co23       1.0     0.334672     0.956142     0.666826    Uiso  ? Co
   Co24       1.0     0.334336     0.380473     0.666741    Uiso  ? Co
   Co25       1.0     0.624660     0.666713     0.666596    Uiso  ? Co
   Co26       1.0     0.620538     0.952840     0.666607    Uiso  ? Co
   Co27       1.0     0.996633     0.498337     0.154384    Uiso  ? Co
   Co28       1.0     0.501599     0.003354     0.154509    Uiso  ? Co
   Co29       1.0     0.501510     0.498233     0.154213    Uiso  ? Co
   Co30       1.0     0.669924     0.835119     0.179122    Uiso  ? Co
   Co31       1.0     0.164951     0.330015     0.178909    Uiso  ? Co
   Co32       1.0     0.164954     0.835004     0.178984    Uiso  ? Co
   Co33       1.0     0.663296     0.831943     0.487163    Uiso  ? Co
   Co34       1.0     0.168508     0.337086     0.487233    Uiso  ? Co
   Co35       1.0     0.168438     0.832160     0.487040    Uiso  ? Co
   Co36       1.0     0.336579     0.168445     0.512038    Uiso  ? Co
   Co37       1.0     0.831017     0.663548     0.510041    Uiso  ? Co
   Co38       1.0     0.831398     0.168236     0.512207    Uiso  ? Co
   Co39       1.0     0.329917     0.165105     0.821259    Uiso  ? Co
   Co40       1.0     0.834163     0.669769     0.823253    Uiso  ? Co
   Co41       1.0     0.834780     0.164885     0.821396    Uiso  ? Co
   Co42       1.0     0.003056     0.501180     0.846214    Uiso  ? Co
   Co43       1.0     0.497997     0.996065     0.846030    Uiso  ? Co
   Co44       1.0     0.498040     0.501434     0.846045    Uiso  ? Co
   Fe1        1.0     0.666670     0.333551     0.235825    Uiso  ? Fe
   Fe2        1.0     0.334022     0.666532     0.569221    Uiso  ? Fe
   Fe3        1.0    -0.000078     0.000222     0.902684    Uiso  ? Fe
   Fe4        1.0     0.666381     0.333122     0.430654    Uiso  ? Fe
   Fe5        1.0     0.334347     0.666805     0.764131    Uiso  ? Fe
   Fe6        1.0    -0.000157    -0.000148     0.097604    Uiso  ? Fe
   Fe7        1.0     0.045776     0.666668     0.666683    Uiso  ? Fe
