
#======================================================================
# CRYSTAL DATA
#----------------------------------------------------------------------
data_VESTA_phase_1

_chemical_name_common                  'Sm6 Co51                              '
_cell_length_a                         8.370093
_cell_length_b                         8.370306
_cell_length_c                         12.160682
_cell_angle_alpha                      90.017471
_cell_angle_beta                       90.000000
_cell_angle_gamma                      119.999161
_cell_volume                           737.842788
_space_group_name_H-M_alt              'P 1'
_space_group_IT_number                 1

loop_
_space_group_symop_operation_xyz
   'x, y, z'

loop_
   _atom_site_label
   _atom_site_occupancy
   _atom_site_fract_x
   _atom_site_fract_y
   _atom_site_fract_z
   _atom_site_adp_type
   _atom_site_U_iso_or_equiv
   _atom_site_type_symbol
   Sm1        1.0     0.333366     0.666733     0.012371    Uiso  ? Sm
   Sm2        1.0     0.666109     0.332217    -0.011146    Uiso  ? Sm
   Sm3        1.0     0.333296     0.666592     0.321116    Uiso  ? Sm
   Sm4        1.0     0.000575     0.001149     0.344448    Uiso  ? Sm
   Sm5        1.0     0.003114     0.006228     0.654395    Uiso  ? Sm
   Sm6        1.0     0.663496     0.326991     0.678824    Uiso  ? Sm
   Co1        1.0     0.833368     0.166680     0.166627    Uiso  ? Co
   Co2        1.0     0.333311     0.166680     0.166627    Uiso  ? Co
   Co3        1.0     0.833351     0.666704     0.166596    Uiso  ? Co
   Co4        1.0     0.499362     0.499936     0.499011    Uiso  ? Co
   Co5        1.0     0.000574     0.499936     0.499011    Uiso  ? Co
   Co6        1.0     0.499516    -0.000968     0.500089    Uiso  ? Co
   Co7        1.0     0.167150     0.334298     0.833320    Uiso  ? Co
   Co8        1.0     0.167289     0.833398     0.834350    Uiso  ? Co
   Co9        1.0     0.666110     0.833398     0.834350    Uiso  ? Co
   Co10       1.0     0.000069     0.712636     0.000558    Uiso  ? Co
   Co11       1.0     0.000065     0.287467    -0.000034    Uiso  ? Co
   Co12       1.0     0.287217    -0.000263     0.000150    Uiso  ? Co
   Co13       1.0     0.287401     0.287467    -0.000034    Uiso  ? Co
   Co14       1.0     0.712567     0.712636     0.000558    Uiso  ? Co
   Co15       1.0     0.712520    -0.000263     0.000150    Uiso  ? Co
   Co16       1.0     0.379624     0.333608     0.333133    Uiso  ? Co
   Co17       1.0     0.379377     0.045943     0.333336    Uiso  ? Co
   Co18       1.0     0.666568     0.045943     0.333336    Uiso  ? Co
   Co19       1.0     0.666611     0.620590     0.332690    Uiso  ? Co
   Co20       1.0     0.953985     0.333608     0.333133    Uiso  ? Co
   Co21       1.0     0.953980     0.620590     0.332690    Uiso  ? Co
   Co22       1.0     0.045495     0.379320     0.666497    Uiso  ? Co
   Co23       1.0     0.332811     0.953921     0.666938    Uiso  ? Co
   Co24       1.0     0.333824     0.379320     0.666497    Uiso  ? Co
   Co25       1.0     0.621109     0.953921     0.666938    Uiso  ? Co
   Co26       1.0    -0.003261     0.498257     0.154297    Uiso  ? Co
   Co27       1.0     0.501698     0.003396     0.154645    Uiso  ? Co
   Co28       1.0     0.501518     0.498257     0.154297    Uiso  ? Co
   Co29       1.0     0.669831     0.835032     0.179043    Uiso  ? Co
   Co30       1.0     0.165023     0.330046     0.178740    Uiso  ? Co
   Co31       1.0     0.165201     0.835032     0.179043    Uiso  ? Co
   Co32       1.0     0.663344     0.832466     0.486952    Uiso  ? Co
   Co33       1.0     0.168949     0.337896     0.487163    Uiso  ? Co
   Co34       1.0     0.169123     0.832466     0.486952    Uiso  ? Co
   Co35       1.0     0.336823     0.168530     0.511433    Uiso  ? Co
   Co36       1.0     0.831983     0.663967     0.507805    Uiso  ? Co
   Co37       1.0     0.831706     0.168530     0.511433    Uiso  ? Co
   Co38       1.0     0.329949     0.164860     0.821824    Uiso  ? Co
   Co39       1.0     0.834716     0.669432     0.825399    Uiso  ? Co
   Co40       1.0     0.834910     0.164860     0.821824    Uiso  ? Co
   Co41       1.0     0.003376     0.500864     0.846439    Uiso  ? Co
   Co42       1.0     0.497727     0.995454     0.846246    Uiso  ? Co
   Co43       1.0     0.497488     0.500864     0.846439    Uiso  ? Co
   Fe1        1.0     0.666774     0.333546     0.235574    Uiso  ? Fe
   Fe2        1.0     0.333254     0.666508     0.569353    Uiso  ? Fe
   Fe3        1.0     0.000282     0.000563     0.902807    Uiso  ? Fe
   Fe4        1.0     0.666413     0.332824     0.430418    Uiso  ? Fe
   Fe5        1.0     0.333431     0.666864     0.764274    Uiso  ? Fe
   Fe6        1.0    -0.000071    -0.000143     0.097736    Uiso  ? Fe
   Fe7        1.0     0.039610     0.666606     0.666671    Uiso  ? Fe
   Fe8        1.0     0.626995     0.666606     0.666671    Uiso  ? Fe
