
#======================================================================
# CRYSTAL DATA
#----------------------------------------------------------------------
data_VESTA_phase_1

_chemical_name_common                  'Sm6 Co51                              '
_cell_length_a                         8.377080
_cell_length_b                         8.373231
_cell_length_c                         12.179427
_cell_angle_alpha                      90.034309
_cell_angle_beta                       89.996162
_cell_angle_gamma                      120.015717
_cell_volume                           739.731869
_space_group_name_H-M_alt              'P 1'
_space_group_IT_number                 1

loop_
_space_group_symop_operation_xyz
   'x, y, z'

loop_
   _atom_site_label
   _atom_site_occupancy
   _atom_site_fract_x
   _atom_site_fract_y
   _atom_site_fract_z
   _atom_site_adp_type
   _atom_site_U_iso_or_equiv
   _atom_site_type_symbol
   Sm1        1.0     0.333365     0.667397     0.011913    Uiso  ? Sm
   Sm2        1.0     0.666198     0.332203     0.988620    Uiso  ? Sm
   Sm3        1.0     0.334141     0.669223     0.320879    Uiso  ? Sm
   Sm4        1.0     0.998873     0.998536     0.344640    Uiso  ? Sm
   Sm5        1.0     0.002176     0.005249     0.654878    Uiso  ? Sm
   Sm6        1.0     0.663752     0.327437     0.679037    Uiso  ? Sm
   Co1        1.0     0.833044     0.167024     0.166627    Uiso  ? Co
   Co2        1.0     0.333425     0.166267     0.165757    Uiso  ? Co
   Co3        1.0     0.832886     0.665893     0.166612    Uiso  ? Co
   Co4        1.0     0.499850     0.500346     0.499861    Uiso  ? Co
   Co5        1.0     0.999903     0.499559     0.499139    Uiso  ? Co
   Co6        1.0     0.499704     0.999642     0.500078    Uiso  ? Co
   Co7        1.0     0.166945     0.334394     0.833306    Uiso  ? Co
   Co8        1.0     0.167142     0.833388     0.834218    Uiso  ? Co
   Co9        1.0     0.665890     0.833425     0.834403    Uiso  ? Co
   Co10       1.0     0.999848     0.712791     0.000330    Uiso  ? Co
   Co11       1.0     0.000174     0.287500    -0.000034    Uiso  ? Co
   Co12       1.0     0.287167     0.999902     0.000133    Uiso  ? Co
   Co13       1.0     0.287533     0.287459     0.999519    Uiso  ? Co
   Co14       1.0     0.712277     0.712451     0.000728    Uiso  ? Co
   Co15       1.0     0.712752    -0.000046    -0.000036    Uiso  ? Co
   Co16       1.0     0.378465     0.043690     0.333153    Uiso  ? Co
   Co17       1.0     0.667552     0.046936     0.333321    Uiso  ? Co
   Co18       1.0     0.668259     0.623085     0.332927    Uiso  ? Co
   Co19       1.0     0.958192     0.333664     0.333224    Uiso  ? Co
   Co20       1.0     0.954240     0.619716     0.332739    Uiso  ? Co
   Co21       1.0     0.045243     0.378768     0.666600    Uiso  ? Co
   Co22       1.0     0.332888     0.954507     0.666745    Uiso  ? Co
   Co23       1.0     0.333501     0.378737     0.666939    Uiso  ? Co
   Co24       1.0     0.620798     0.954187     0.667051    Uiso  ? Co
   Co25       1.0     0.996598     0.498403     0.154051    Uiso  ? Co
   Co26       1.0     0.501965     0.003967     0.154452    Uiso  ? Co
   Co27       1.0     0.501826     0.498705     0.153950    Uiso  ? Co
   Co28       1.0     0.669856     0.835177     0.178450    Uiso  ? Co
   Co29       1.0     0.164335     0.329983     0.176362    Uiso  ? Co
   Co30       1.0     0.164964     0.834973     0.178593    Uiso  ? Co
   Co31       1.0     0.663004     0.832412     0.487431    Uiso  ? Co
   Co32       1.0     0.167965     0.337671     0.489798    Uiso  ? Co
   Co33       1.0     0.168820     0.832237     0.487582    Uiso  ? Co
   Co34       1.0     0.336652     0.168047     0.511859    Uiso  ? Co
   Co35       1.0     0.831675     0.663263     0.507981    Uiso  ? Co
   Co36       1.0     0.831321     0.168234     0.511637    Uiso  ? Co
   Co37       1.0     0.329841     0.164872     0.821918    Uiso  ? Co
   Co38       1.0     0.834664     0.669779     0.825515    Uiso  ? Co
   Co39       1.0     0.834843     0.164765     0.821829    Uiso  ? Co
   Co40       1.0     0.003474     0.501180     0.846450    Uiso  ? Co
   Co41       1.0     0.497632     0.995565     0.846000    Uiso  ? Co
   Co42       1.0     0.497316     0.500979     0.846229    Uiso  ? Co
   Fe1        1.0     0.667762     0.333398     0.235623    Uiso  ? Fe
   Fe2        1.0     0.332971     0.666677     0.569355    Uiso  ? Fe
   Fe3        1.0     0.000234     0.000600     0.902685    Uiso  ? Fe
   Fe4        1.0     0.667367     0.332937     0.430465    Uiso  ? Fe
   Fe5        1.0     0.333299     0.666788     0.764248    Uiso  ? Fe
   Fe6        1.0     0.999621     0.999622     0.097569    Uiso  ? Fe
   Fe7        1.0     0.040160     0.666408     0.666889    Uiso  ? Fe
   Fe8        1.0     0.625961     0.666356     0.666568    Uiso  ? Fe
   Fe9        1.0     0.379692     0.333673     0.333204    Uiso  ? Fe
