
#======================================================================
# CRYSTAL DATA
#----------------------------------------------------------------------
data_VESTA_phase_1

_chemical_name_common                  'Sm6 Co51                              '
_cell_length_a                         8.352530
_cell_length_b                         8.323928
_cell_length_c                         12.176574
_cell_angle_alpha                      89.999718
_cell_angle_beta                       90.002190
_cell_angle_gamma                      119.886894
_cell_volume                           733.999837
_space_group_name_H-M_alt              'P 1'
_space_group_IT_number                 1

loop_
_space_group_symop_operation_xyz
   'x, y, z'

loop_
   _atom_site_label
   _atom_site_occupancy
   _atom_site_fract_x
   _atom_site_fract_y
   _atom_site_fract_z
   _atom_site_adp_type
   _atom_site_U_iso_or_equiv
   _atom_site_type_symbol
   Sm1        1.0     0.333885     0.666933     0.008586    Uiso  ? Sm
   Sm2        1.0     0.667414     0.333713     0.983329    Uiso  ? Sm
   Sm3        1.0     0.328946     0.664465     0.326902    Uiso  ? Sm
   Sm4        1.0     0.003895     0.001951     0.340543    Uiso  ? Sm
   Sm5        1.0     0.000237     0.000121     0.657129    Uiso  ? Sm
   Sm6        1.0     0.667266     0.333635     0.677061    Uiso  ? Sm
   Co1        1.0     0.833338     0.167649     0.163851    Uiso  ? Co
   Co2        1.0     0.334618     0.167316     0.163813    Uiso  ? Co
   Co3        1.0     0.833331     0.665692     0.163851    Uiso  ? Co
   Co4        1.0     0.500670     0.499110     0.499533    Uiso  ? Co
   Co5        1.0     0.997245     0.498621     0.500416    Uiso  ? Co
   Co6        1.0     0.500674     0.001561     0.499534    Uiso  ? Co
   Co7        1.0     0.167439     0.334002     0.832768    Uiso  ? Co
   Co8        1.0     0.167439     0.833436     0.832767    Uiso  ? Co
   Co9        1.0     0.666527     0.833264     0.833162    Uiso  ? Co
   Co10       1.0     0.001028     0.707221     0.999279    Uiso  ? Co
   Co11       1.0     0.001031     0.293803     0.999278    Uiso  ? Co
   Co12       1.0     0.292989     0.999477     0.999518    Uiso  ? Co
   Co13       1.0     0.292990     0.293517     0.999518    Uiso  ? Co
   Co14       1.0     0.706651     0.706891     0.999890    Uiso  ? Co
   Co15       1.0     0.706655     0.999761     0.999888    Uiso  ? Co
   Co16       1.0     0.377145     0.333065     0.333682    Uiso  ? Co
   Co17       1.0     0.377142     0.044084     0.333687    Uiso  ? Co
   Co18       1.0     0.667012     0.041168     0.333143    Uiso  ? Co
   Co19       1.0     0.667007     0.625843     0.333142    Uiso  ? Co
   Co20       1.0     0.954998     0.331417     0.334135    Uiso  ? Co
   Co21       1.0     0.954998     0.623582     0.334134    Uiso  ? Co
   Co22       1.0     0.040083     0.666702     0.666682    Uiso  ? Co
   Co23       1.0     0.040082     0.373377     0.666680    Uiso  ? Co
   Co24       1.0     0.333353     0.960428     0.666298    Uiso  ? Co
   Co25       1.0     0.333353     0.372923     0.666300    Uiso  ? Co
   Co26       1.0     0.624348     0.665740     0.667612    Uiso  ? Co
   Co27       1.0     0.624350     0.958606     0.667611    Uiso  ? Co
   Co28       1.0     0.666441     0.833218     0.178304    Uiso  ? Co
   Co29       1.0     0.167188     0.334307     0.177256    Uiso  ? Co
   Co30       1.0     0.167186     0.832880     0.177256    Uiso  ? Co
   Co31       1.0     0.168638     0.338022     0.489905    Uiso  ? Co
   Co32       1.0     0.168638     0.830611     0.489909    Uiso  ? Co
   Co33       1.0     0.338614     0.169308     0.512375    Uiso  ? Co
   Co34       1.0     0.830906     0.663015     0.511474    Uiso  ? Co
   Co35       1.0     0.830909     0.167893     0.511475    Uiso  ? Co
   Co36       1.0     0.328563     0.164284     0.821138    Uiso  ? Co
   Co37       1.0     0.837095     0.672807     0.821253    Uiso  ? Co
   Co38       1.0     0.837098     0.164290     0.821252    Uiso  ? Co
   Co39       1.0     0.006343     0.503169     0.844734    Uiso  ? Co
   Co40       1.0     0.498107     0.995476     0.844800    Uiso  ? Co
   Co41       1.0     0.498105     0.502630     0.844802    Uiso  ? Co
   Cr1        1.0     0.666040     0.333029     0.244563    Uiso  ? Cr
   Cr2        1.0     0.330941     0.665469     0.584939    Uiso  ? Cr
   Cr3        1.0     0.999790     0.999894     0.915778    Uiso  ? Cr
   Cr4        1.0     0.667303     0.333653     0.422101    Uiso  ? Cr
   Cr5        1.0     0.334464     0.667226     0.749712    Uiso  ? Cr
   Cr6        1.0     0.000160     0.000076     0.081335    Uiso  ? Cr
   Cr7        1.0     0.990221     0.495112     0.159836    Uiso  ? Cr
   Cr8        1.0     0.505615     0.010948     0.160517    Uiso  ? Cr
   Cr9        1.0     0.505622     0.494672     0.160518    Uiso  ? Cr
   Cr10       1.0     0.657877     0.828934     0.491048    Uiso  ? Cr
