
#======================================================================
# CRYSTAL DATA
#----------------------------------------------------------------------
data_VESTA_phase_1

_chemical_name_common                  'Sm6 Co51                              '
_cell_length_a                         8.338348
_cell_length_b                         8.327929
_cell_length_c                         12.172071
_cell_angle_alpha                      90.026566
_cell_angle_beta                       89.979256
_cell_angle_gamma                      119.817589
_cell_volume                           733.343495
_space_group_name_H-M_alt              'P 1'
_space_group_IT_number                 1

loop_
_space_group_symop_operation_xyz
   'x, y, z'

loop_
   _atom_site_label
   _atom_site_occupancy
   _atom_site_fract_x
   _atom_site_fract_y
   _atom_site_fract_z
   _atom_site_adp_type
   _atom_site_U_iso_or_equiv
   _atom_site_type_symbol
   Sm1        1.0     0.333724     0.666419     0.007996    Uiso  ? Sm
   Sm2        1.0     0.666683     0.333244     0.982229    Uiso  ? Sm
   Sm3        1.0     0.331065     0.668745     0.324809    Uiso  ? Sm
   Sm4        1.0     0.002712     0.997473     0.339686    Uiso  ? Sm
   Sm5        1.0     0.000291     0.999463     0.658571    Uiso  ? Sm
   Sm6        1.0     0.667157     0.333067     0.676383    Uiso  ? Sm
   Co1        1.0     0.832647     0.167552     0.163633    Uiso  ? Co
   Co2        1.0     0.333975     0.166891     0.163985    Uiso  ? Co
   Co3        1.0     0.833274     0.666132     0.163998    Uiso  ? Co
   Co4        1.0     0.499197     0.501037     0.498123    Uiso  ? Co
   Co5        1.0     0.997668     0.498697     0.499492    Uiso  ? Co
   Co6        1.0     0.501344     0.002327     0.499499    Uiso  ? Co
   Co7        1.0     0.166888     0.333163     0.833045    Uiso  ? Co
   Co8        1.0     0.166949     0.833051     0.832678    Uiso  ? Co
   Co9        1.0     0.666866     0.833111     0.833055    Uiso  ? Co
   Co10       1.0     0.000730     0.706664     0.999247    Uiso  ? Co
   Co11       1.0     0.000549     0.294101     0.999731    Uiso  ? Co
   Co12       1.0     0.292915     0.999069     0.999265    Uiso  ? Co
   Co13       1.0     0.292104     0.292592     0.999971    Uiso  ? Co
   Co14       1.0     0.707540     0.707686     0.999975    Uiso  ? Co
   Co15       1.0     0.706192     0.999530     0.999749    Uiso  ? Co
   Co16       1.0     0.376046     0.333733     0.333232    Uiso  ? Co
   Co17       1.0     0.379012     0.046717     0.334226    Uiso  ? Co
   Co18       1.0     0.668458     0.042580     0.333582    Uiso  ? Co
   Co19       1.0     0.666457     0.624232     0.333216    Uiso  ? Co
   Co20       1.0     0.957164     0.331397     0.333604    Uiso  ? Co
   Co21       1.0     0.953081     0.621113     0.334253    Uiso  ? Co
   Co22       1.0     0.040180     0.666690     0.666241    Uiso  ? Co
   Co23       1.0     0.041882     0.375440     0.667320    Uiso  ? Co
   Co24       1.0     0.333426     0.960061     0.666255    Uiso  ? Co
   Co25       1.0     0.333818     0.375311     0.666931    Uiso  ? Co
   Co26       1.0     0.624446     0.666047     0.666941    Uiso  ? Co
   Co27       1.0     0.624390     0.958231     0.667377    Uiso  ? Co
   Co28       1.0     0.666574     0.833783     0.178495    Uiso  ? Co
   Co29       1.0     0.165860     0.333095     0.178556    Uiso  ? Co
   Co30       1.0     0.167888     0.831811     0.176560    Uiso  ? Co
   Co31       1.0     0.169270     0.830922     0.490330    Uiso  ? Co
   Co32       1.0     0.337493     0.169362     0.512827    Uiso  ? Co
   Co33       1.0     0.830478     0.662395     0.512868    Uiso  ? Co
   Co34       1.0     0.833382     0.166203     0.511050    Uiso  ? Co
   Co35       1.0     0.327635     0.163212     0.821524    Uiso  ? Co
   Co36       1.0     0.837003     0.672604     0.821488    Uiso  ? Co
   Co37       1.0     0.836862     0.163325     0.821821    Uiso  ? Co
   Co38       1.0     0.005920     0.502601     0.844718    Uiso  ? Co
   Co39       1.0     0.497227     0.993917     0.844752    Uiso  ? Co
   Co40       1.0     0.497621     0.502167     0.845136    Uiso  ? Co
   Cr1        1.0     0.666251     0.333551     0.243210    Uiso  ? Cr
   Cr2        1.0     0.331947     0.667954     0.584059    Uiso  ? Cr
   Cr3        1.0     0.000028     0.999932     0.916406    Uiso  ? Cr
   Cr4        1.0     0.666453     0.333606     0.421886    Uiso  ? Cr
   Cr5        1.0     0.333866     0.666161     0.751225    Uiso  ? Cr
   Cr6        1.0     0.000132     0.999960     0.081503    Uiso  ? Cr
   Cr7        1.0     0.988946     0.495076     0.160320    Uiso  ? Cr
   Cr8        1.0     0.505265     0.011259     0.160299    Uiso  ? Cr
   Cr9        1.0     0.505903     0.494427     0.159920    Uiso  ? Cr
   Cr10       1.0     0.658504     0.829514     0.491366    Uiso  ? Cr
   Cr11       1.0     0.170664     0.341600     0.491381    Uiso  ? Cr
