
#======================================================================
# CRYSTAL DATA
#----------------------------------------------------------------------
data_VESTA_phase_1

_chemical_name_common                  'Sm6 Co51                              '
_cell_length_a                         8.341071
_cell_length_b                         8.340129
_cell_length_c                         12.197161
_cell_angle_alpha                      89.998566
_cell_angle_beta                       90.000633
_cell_angle_gamma                      119.999527
_cell_volume                           734.828574
_space_group_name_H-M_alt              'P 1'
_space_group_IT_number                 1

loop_
_space_group_symop_operation_xyz
   'x, y, z'

loop_
   _atom_site_label
   _atom_site_occupancy
   _atom_site_fract_x
   _atom_site_fract_y
   _atom_site_fract_z
   _atom_site_adp_type
   _atom_site_U_iso_or_equiv
   _atom_site_type_symbol
   Sm1        1.0     0.333399     0.666716     0.008994    Uiso  ? Sm
   Sm2        1.0     0.666611     0.333261     0.982451    Uiso  ? Sm
   Sm3        1.0     0.333318     0.666608     0.322023    Uiso  ? Sm
   Sm4        1.0     0.000013     0.000038     0.338326    Uiso  ? Sm
   Sm5        1.0     0.999999     0.000048     0.660766    Uiso  ? Sm
   Sm6        1.0     0.666690     0.333322     0.674653    Uiso  ? Sm
   Co1        1.0     0.832529     0.167479     0.163592    Uiso  ? Co
   Co2        1.0     0.334991     0.167496     0.163597    Uiso  ? Co
   Co3        1.0     0.832536     0.665056     0.163593    Uiso  ? Co
   Co4        1.0     0.499625     0.500397     0.497475    Uiso  ? Co
   Co5        1.0     0.000749     0.500372     0.497483    Uiso  ? Co
   Co6        1.0     0.499637     0.999248     0.497475    Uiso  ? Co
   Co7        1.0     0.167235     0.334437     0.832972    Uiso  ? Co
   Co8        1.0     0.167262     0.832813     0.832974    Uiso  ? Co
   Co9        1.0     0.665559     0.832800     0.833002    Uiso  ? Co
   Co10       1.0     0.000512     0.706529     0.999573    Uiso  ? Co
   Co11       1.0     0.000536     0.293970     0.999585    Uiso  ? Co
   Co12       1.0     0.293354     0.999452     0.999577    Uiso  ? Co
   Co13       1.0     0.293400     0.293950     0.999592    Uiso  ? Co
   Co14       1.0     0.706047     0.706556     0.999558    Uiso  ? Co
   Co15       1.0     0.706101     0.999471     0.999568    Uiso  ? Co
   Co16       1.0     0.375847     0.332069     0.333747    Uiso  ? Co
   Co17       1.0     0.375772     0.043709     0.333742    Uiso  ? Co
   Co18       1.0     0.667945     0.043684     0.333757    Uiso  ? Co
   Co19       1.0     0.667971     0.624270     0.333768    Uiso  ? Co
   Co20       1.0     0.956233     0.332072     0.333770    Uiso  ? Co
   Co21       1.0     0.956291     0.624257     0.333781    Uiso  ? Co
   Co22       1.0     0.042581     0.666182     0.666852    Uiso  ? Co
   Co23       1.0     0.042546     0.376354     0.666853    Uiso  ? Co
   Co24       1.0     0.333860     0.957544     0.666906    Uiso  ? Co
   Co25       1.0     0.333802     0.376318     0.666874    Uiso  ? Co
   Co26       1.0     0.623565     0.666173     0.666860    Uiso  ? Co
   Co27       1.0     0.623598     0.957478     0.666892    Uiso  ? Co
   Co28       1.0     0.665443     0.832712     0.177528    Uiso  ? Co
   Co29       1.0     0.167259     0.334472     0.177583    Uiso  ? Co
   Co30       1.0     0.167285     0.832768     0.177549    Uiso  ? Co
   Co31       1.0     0.332302     0.166159     0.511694    Uiso  ? Co
   Co32       1.0     0.833828     0.667677     0.511705    Uiso  ? Co
   Co33       1.0     0.833842     0.166150     0.511695    Uiso  ? Co
   Co34       1.0     0.327230     0.163598     0.821362    Uiso  ? Co
   Co35       1.0     0.836386     0.672787     0.821355    Uiso  ? Co
   Co36       1.0     0.836363     0.163582     0.821361    Uiso  ? Co
   Co37       1.0     0.005814     0.502894     0.845302    Uiso  ? Co
   Co38       1.0     0.497090     0.994184     0.845344    Uiso  ? Co
   Co39       1.0     0.497087     0.502893     0.845319    Uiso  ? Co
   Cr1        1.0     0.666663     0.333343     0.244033    Uiso  ? Cr
   Cr2        1.0     0.333311     0.666668     0.579300    Uiso  ? Cr
   Cr3        1.0    -0.000007     0.999992     0.916674    Uiso  ? Cr
   Cr4        1.0     0.666700     0.333357     0.422440    Uiso  ? Cr
   Cr5        1.0     0.333316     0.666665     0.754074    Uiso  ? Cr
   Cr6        1.0     0.999972    -0.000015     0.081947    Uiso  ? Cr
   Cr7        1.0     0.988366     0.494195     0.161282    Uiso  ? Cr
   Cr8        1.0     0.505839     0.011618     0.161263    Uiso  ? Cr
   Cr9        1.0     0.505855     0.494213     0.161276    Uiso  ? Cr
   Cr10       1.0     0.656229     0.828129     0.493092    Uiso  ? Cr
   Cr11       1.0     0.171840     0.343719     0.493089    Uiso  ? Cr
   Cr12       1.0     0.171873     0.828110     0.493103    Uiso  ? Cr
