
#======================================================================
# CRYSTAL DATA
#----------------------------------------------------------------------
data_VESTA_phase_1

_chemical_name_common                  'Sm6 Co51                              '
_cell_length_a                         8.376916
_cell_length_b                         8.348077
_cell_length_c                         12.174280
_cell_angle_alpha                      90.000015
_cell_angle_beta                       89.986977
_cell_angle_gamma                      119.886169
_cell_volume                           738.144708
_space_group_name_H-M_alt              'P 1'
_space_group_IT_number                 1

loop_
_space_group_symop_operation_xyz
   'x, y, z'

loop_
   _atom_site_label
   _atom_site_occupancy
   _atom_site_fract_x
   _atom_site_fract_y
   _atom_site_fract_z
   _atom_site_adp_type
   _atom_site_U_iso_or_equiv
   _atom_site_type_symbol
   Sm1        1.0     0.334188     0.667092     0.011022    Uiso  ? Sm
   Sm2        1.0     0.667747     0.333873    -0.015425    Uiso  ? Sm
   Sm3        1.0     0.333315     0.666655     0.321002    Uiso  ? Sm
   Sm4        1.0     0.000287     0.000143     0.334101    Uiso  ? Sm
   Sm5        1.0    -0.003936    -0.001968     0.659658    Uiso  ? Sm
   Sm6        1.0     0.669987     0.334995     0.674824    Uiso  ? Sm
   Co1        1.0     0.833478     0.167498     0.163473    Uiso  ? Co
   Co2        1.0     0.335016     0.167509     0.163799    Uiso  ? Co
   Co3        1.0     0.833479     0.665975     0.163472    Uiso  ? Co
   Co4        1.0     0.501053     0.499747     0.498766    Uiso  ? Co
   Co5        1.0    -0.002019     0.498991     0.498774    Uiso  ? Co
   Co6        1.0     0.501054     0.001309     0.498766    Uiso  ? Co
   Co7        1.0     0.167097     0.334576     0.832937    Uiso  ? Co
   Co8        1.0     0.167097     0.832522     0.832936    Uiso  ? Co
   Co9        1.0     0.664012     0.832006     0.833630    Uiso  ? Co
   Co10       1.0     0.000231     0.707443    -0.000789    Uiso  ? Co
   Co11       1.0     0.000233     0.292786    -0.000785    Uiso  ? Co
   Co12       1.0     0.290011    -0.001606     0.001009    Uiso  ? Co
   Co13       1.0     0.290010     0.291614     0.001010    Uiso  ? Co
   Co14       1.0     0.708072     0.708565    -0.000360    Uiso  ? Co
   Co15       1.0     0.708072    -0.000493    -0.000361    Uiso  ? Co
   Co16       1.0     0.377958     0.332006     0.333844    Uiso  ? Co
   Co17       1.0     0.377958     0.045950     0.333843    Uiso  ? Co
   Co18       1.0     0.668728     0.045870     0.333481    Uiso  ? Co
   Co19       1.0     0.668728     0.622858     0.333481    Uiso  ? Co
   Co20       1.0     0.953978     0.331577     0.333718    Uiso  ? Co
   Co21       1.0     0.953983     0.622401     0.333718    Uiso  ? Co
   Co22       1.0     0.043500     0.665743     0.667475    Uiso  ? Co
   Co23       1.0     0.043499     0.377758     0.667476    Uiso  ? Co
   Co24       1.0     0.334239     0.958183     0.666760    Uiso  ? Co
   Co25       1.0     0.334239     0.376057     0.666762    Uiso  ? Co
   Co26       1.0     0.622363     0.664995     0.667764    Uiso  ? Co
   Co27       1.0     0.622365     0.957374     0.667764    Uiso  ? Co
   Co28       1.0     0.668217     0.834109     0.178989    Uiso  ? Co
   Co29       1.0     0.166428     0.332823     0.179298    Uiso  ? Co
   Co30       1.0     0.166431     0.833604     0.179296    Uiso  ? Co
   Co31       1.0     0.334418     0.167208     0.513797    Uiso  ? Co
   Co32       1.0     0.832578     0.665693     0.512816    Uiso  ? Co
   Co33       1.0     0.832575     0.166886     0.512817    Uiso  ? Co
   Co34       1.0     0.835713     0.672155     0.819156    Uiso  ? Co
   Co35       1.0     0.835715     0.163561     0.819156    Uiso  ? Co
   Co36       1.0     0.007338     0.503669     0.847931    Uiso  ? Co
   Co37       1.0     0.497632     0.994744     0.846590    Uiso  ? Co
   Co38       1.0     0.497634     0.502890     0.846590    Uiso  ? Co
   Cr1        1.0     0.666722     0.333361     0.242746    Uiso  ? Cr
   Cr2        1.0     0.333478     0.666740     0.574909    Uiso  ? Cr
   Cr3        1.0    -0.002637    -0.001317     0.915489    Uiso  ? Cr
   Cr4        1.0     0.666331     0.333169     0.424526    Uiso  ? Cr
   Cr5        1.0     0.333719     0.666860     0.755694    Uiso  ? Cr
   Cr6        1.0     0.001036     0.000514     0.081652    Uiso  ? Cr
   Cr7        1.0     0.990387     0.495194     0.160810    Uiso  ? Cr
   Cr8        1.0     0.506033     0.011037     0.160969    Uiso  ? Cr
   Cr9        1.0     0.506035     0.494995     0.160967    Uiso  ? Cr
   Cr10       1.0     0.660476     0.830238     0.488452    Uiso  ? Cr
   Cr11       1.0     0.169459     0.338644     0.488804    Uiso  ? Cr
   Cr12       1.0     0.169460     0.830814     0.488801    Uiso  ? Cr
   Cr13       1.0     0.324801     0.162401     0.822199    Uiso  ? Cr
