
#======================================================================
# CRYSTAL DATA
#----------------------------------------------------------------------
data_VESTA_phase_1

_chemical_name_common                  'Sm6 Co51                              '
_cell_length_a                         8.314792
_cell_length_b                         8.314857
_cell_length_c                         12.213127
_cell_angle_alpha                      90.022896
_cell_angle_beta                       89.977654
_cell_angle_gamma                      119.715240
_cell_volume                           733.335375
_space_group_name_H-M_alt              'P 1'
_space_group_IT_number                 1

loop_
_space_group_symop_operation_xyz
   'x, y, z'

loop_
   _atom_site_label
   _atom_site_occupancy
   _atom_site_fract_x
   _atom_site_fract_y
   _atom_site_fract_z
   _atom_site_adp_type
   _atom_site_U_iso_or_equiv
   _atom_site_type_symbol
   Sm1        1.0     0.333809     0.666117     0.006403    Uiso  ? Sm
   Sm2        1.0     0.668035     0.331984     0.986105    Uiso  ? Sm
   Sm3        1.0     0.333457     0.666476     0.321982    Uiso  ? Sm
   Sm4        1.0     0.000146     0.999949     0.337684    Uiso  ? Sm
   Sm5        1.0     0.997554     0.002493     0.657020    Uiso  ? Sm
   Sm6        1.0     0.669113     0.330881     0.672358    Uiso  ? Sm
   Co1        1.0     0.832974     0.167029     0.163359    Uiso  ? Co
   Co2        1.0     0.334273     0.167067     0.164100    Uiso  ? Co
   Co3        1.0     0.832926     0.665711     0.164101    Uiso  ? Co
   Co4        1.0     0.500149     0.499821     0.497698    Uiso  ? Co
   Co5        1.0     0.000508     0.499789     0.497470    Uiso  ? Co
   Co6        1.0     0.500207     0.999510     0.497482    Uiso  ? Co
   Co7        1.0     0.167982     0.334955     0.832130    Uiso  ? Co
   Co8        1.0     0.165719     0.834285     0.830975    Uiso  ? Co
   Co9        1.0     0.665051     0.832024     0.832127    Uiso  ? Co
   Co10       1.0     0.001450     0.708578     0.000635    Uiso  ? Co
   Co11       1.0     0.000597     0.293168     0.999414    Uiso  ? Co
   Co12       1.0     0.291443     0.998564     0.000647    Uiso  ? Co
   Co13       1.0     0.290822     0.291102     0.000561    Uiso  ? Co
   Co14       1.0     0.708939     0.709212     0.000541    Uiso  ? Co
   Co15       1.0     0.706853     0.999431     0.999408    Uiso  ? Co
   Co16       1.0     0.375295     0.332464     0.333852    Uiso  ? Co
   Co17       1.0     0.376163     0.043579     0.334037    Uiso  ? Co
   Co18       1.0     0.668122     0.043501     0.333661    Uiso  ? Co
   Co19       1.0     0.667531     0.624671     0.333852    Uiso  ? Co
   Co20       1.0     0.956518     0.331887     0.333664    Uiso  ? Co
   Co21       1.0     0.956408     0.623811     0.334042    Uiso  ? Co
   Co22       1.0     0.041542     0.666936     0.666858    Uiso  ? Co
   Co23       1.0     0.045841     0.379853     0.667105    Uiso  ? Co
   Co24       1.0     0.333048     0.958460     0.666854    Uiso  ? Co
   Co25       1.0     0.335646     0.375000     0.667332    Uiso  ? Co
   Co26       1.0     0.624974     0.664339     0.667337    Uiso  ? Co
   Co27       1.0     0.620138     0.954168     0.667102    Uiso  ? Co
   Co28       1.0     0.665712     0.833599     0.177351    Uiso  ? Co
   Co29       1.0     0.166406     0.334293     0.177353    Uiso  ? Co
   Co30       1.0     0.167601     0.832396     0.178215    Uiso  ? Co
   Co31       1.0     0.331986     0.166321     0.511631    Uiso  ? Co
   Co32       1.0     0.833694     0.668004     0.511626    Uiso  ? Co
   Co33       1.0     0.833947     0.166095     0.510819    Uiso  ? Co
   Co34       1.0     0.836282     0.163764     0.822062    Uiso  ? Co
   Co35       1.0     0.002010     0.502053     0.844936    Uiso  ? Co
   Co36       1.0     0.497942     0.997981     0.844935    Uiso  ? Co
   Co37       1.0     0.500875     0.499116     0.844162    Uiso  ? Co
   Cr1        1.0     0.666706     0.333251     0.243712    Uiso  ? Cr
   Cr2        1.0     0.333091     0.666855     0.578030    Uiso  ? Cr
   Cr3        1.0     0.998698     0.001350     0.912613    Uiso  ? Cr
   Cr4        1.0     0.666462     0.333506     0.420572    Uiso  ? Cr
   Cr5        1.0     0.333070     0.666882     0.753810    Uiso  ? Cr
   Cr6        1.0     0.000957     0.999141     0.084303    Uiso  ? Cr
   Cr7        1.0     0.989510     0.494953     0.161177    Uiso  ? Cr
   Cr8        1.0     0.505000     0.010505     0.161178    Uiso  ? Cr
   Cr9        1.0     0.506195     0.493705     0.160335    Uiso  ? Cr
   Cr10       1.0     0.655742     0.827339     0.493617    Uiso  ? Cr
   Cr11       1.0     0.172684     0.344260     0.493625    Uiso  ? Cr
   Cr12       1.0     0.171448     0.828570     0.493696    Uiso  ? Cr
   Cr13       1.0     0.322317     0.161586     0.826179    Uiso  ? Cr
   Cr14       1.0     0.838431     0.677660     0.826167    Uiso  ? Cr
