
#======================================================================
# CRYSTAL DATA
#----------------------------------------------------------------------
data_VESTA_phase_1

_chemical_name_common                  'Sm6 Co51                              '
_cell_length_a                         8.328982
_cell_length_b                         8.328782
_cell_length_c                         12.220999
_cell_angle_alpha                      89.999313
_cell_angle_beta                       90.002655
_cell_angle_gamma                      120.002785
_cell_volume                           734.173298
_space_group_name_H-M_alt              'P 1'
_space_group_IT_number                 1

loop_
_space_group_symop_operation_xyz
   'x, y, z'

loop_
   _atom_site_label
   _atom_site_occupancy
   _atom_site_fract_x
   _atom_site_fract_y
   _atom_site_fract_z
   _atom_site_adp_type
   _atom_site_U_iso_or_equiv
   _atom_site_type_symbol
   Sm1        1.0     0.333287     0.666661     0.005237    Uiso  ? Sm
   Sm2        1.0     0.666859     0.333401     0.987285    Uiso  ? Sm
   Sm3        1.0     0.333157     0.666615     0.320771    Uiso  ? Sm
   Sm4        1.0     0.000019     0.000018     0.338836    Uiso  ? Sm
   Sm5        1.0     0.999987     0.999982     0.653917    Uiso  ? Sm
   Sm6        1.0     0.666709     0.333362     0.672185    Uiso  ? Sm
   Co1        1.0     0.833173     0.166766     0.163770    Uiso  ? Co
   Co2        1.0     0.333567     0.166786     0.163746    Uiso  ? Co
   Co3        1.0     0.833158     0.666394     0.163751    Uiso  ? Co
   Co4        1.0     0.500150     0.499833     0.497162    Uiso  ? Co
   Co5        1.0     0.999698     0.499847     0.497172    Uiso  ? Co
   Co6        1.0     0.500159     0.000325     0.497164    Uiso  ? Co
   Co7        1.0     0.166698     0.333398     0.830368    Uiso  ? Co
   Co8        1.0     0.166685     0.833284     0.830364    Uiso  ? Co
   Co9        1.0     0.666553     0.833273     0.830384    Uiso  ? Co
   Co10       1.0     0.001434     0.710275     0.000440    Uiso  ? Co
   Co11       1.0     0.001444     0.291153     0.000455    Uiso  ? Co
   Co12       1.0     0.289838     0.998576     0.000461    Uiso  ? Co
   Co13       1.0     0.289868     0.291301     0.000468    Uiso  ? Co
   Co14       1.0     0.708685     0.710201     0.000460    Uiso  ? Co
   Co15       1.0     0.708731     0.998498     0.000464    Uiso  ? Co
   Co16       1.0     0.375315     0.331975     0.333785    Uiso  ? Co
   Co17       1.0     0.375307     0.043342     0.333797    Uiso  ? Co
   Co18       1.0     0.667951     0.043292     0.333747    Uiso  ? Co
   Co19       1.0     0.667949     0.624671     0.333746    Uiso  ? Co
   Co20       1.0     0.956638     0.331994     0.333768    Uiso  ? Co
   Co21       1.0     0.956648     0.624664     0.333779    Uiso  ? Co
   Co22       1.0     0.042041     0.665317     0.666917    Uiso  ? Co
   Co23       1.0     0.042024     0.376709     0.666913    Uiso  ? Co
   Co24       1.0     0.334691     0.958020     0.666895    Uiso  ? Co
   Co25       1.0     0.334686     0.376668     0.666884    Uiso  ? Co
   Co26       1.0     0.623288     0.665317     0.666923    Uiso  ? Co
   Co27       1.0     0.623307     0.957990     0.666930    Uiso  ? Co
   Co28       1.0     0.665698     0.832851     0.178290    Uiso  ? Co
   Co29       1.0     0.167199     0.334344     0.178296    Uiso  ? Co
   Co30       1.0     0.167199     0.832859     0.178295    Uiso  ? Co
   Co31       1.0     0.333003     0.166507     0.511885    Uiso  ? Co
   Co32       1.0     0.833556     0.667042     0.511849    Uiso  ? Co
   Co33       1.0     0.833554     0.166536     0.511834    Uiso  ? Co
   Co34       1.0     0.999401     0.499716     0.844867    Uiso  ? Co
   Co35       1.0     0.500327     0.000654     0.844846    Uiso  ? Co
   Co36       1.0     0.500348     0.499684     0.844823    Uiso  ? Co
   Cr1        1.0     0.666708     0.333347     0.243705    Uiso  ? Cr
   Cr2        1.0     0.333376     0.666680     0.576462    Uiso  ? Cr
   Cr3        1.0     0.999973     0.999978     0.910704    Uiso  ? Cr
   Cr4        1.0     0.666630     0.333317     0.420225    Uiso  ? Cr
   Cr5        1.0     0.333274     0.666644     0.753376    Uiso  ? Cr
   Cr6        1.0     0.000053     0.000009     0.087032    Uiso  ? Cr
   Cr7        1.0     0.987826     0.493916     0.160539    Uiso  ? Cr
   Cr8        1.0     0.506101     0.012317     0.160639    Uiso  ? Cr
   Cr9        1.0     0.506130     0.493762     0.160664    Uiso  ? Cr
   Cr10       1.0     0.654310     0.827155     0.493472    Uiso  ? Cr
   Cr11       1.0     0.172850     0.345665     0.493476    Uiso  ? Cr
   Cr12       1.0     0.172854     0.827179     0.493504    Uiso  ? Cr
   Cr13       1.0     0.321196     0.160584     0.827470    Uiso  ? Cr
   Cr14       1.0     0.839360     0.678778     0.827395    Uiso  ? Cr
   Cr15       1.0     0.839373     0.160570     0.827407    Uiso  ? Cr
