
#======================================================================
# CRYSTAL DATA
#----------------------------------------------------------------------
data_VESTA_phase_1

_chemical_name_common                  'Sm6 Co51                              '
_cell_length_a                         8.336108
_cell_length_b                         8.363334
_cell_length_c                         12.204771
_cell_angle_alpha                      90.001724
_cell_angle_beta                       90.001465
_cell_angle_gamma                      119.906624
_cell_volume                           737.583011
_space_group_name_H-M_alt              'P 1'
_space_group_IT_number                 1

loop_
_space_group_symop_operation_xyz
   'x, y, z'

loop_
   _atom_site_label
   _atom_site_occupancy
   _atom_site_fract_x
   _atom_site_fract_y
   _atom_site_fract_z
   _atom_site_adp_type
   _atom_site_U_iso_or_equiv
   _atom_site_type_symbol
   Sm1        1.0     0.333977     0.667925     0.005356    Uiso  ? Sm
   Sm2        1.0     0.666212     0.332382    -0.011497    Uiso  ? Sm
   Sm3        1.0     0.335312     0.670654     0.320848    Uiso  ? Sm
   Sm4        1.0    -0.001702    -0.003392     0.342582    Uiso  ? Sm
   Sm5        1.0    -0.000034    -0.000007     0.653756    Uiso  ? Sm
   Sm6        1.0     0.666622     0.333220     0.674543    Uiso  ? Sm
   Co1        1.0     0.833684     0.167078     0.165564    Uiso  ? Co
   Co2        1.0     0.333407     0.167091     0.165558    Uiso  ? Co
   Co3        1.0     0.832941     0.665872     0.165050    Uiso  ? Co
   Co4        1.0     0.500481     0.500019     0.498561    Uiso  ? Co
   Co5        1.0    -0.000447     0.500000     0.498554    Uiso  ? Co
   Co6        1.0     0.499925    -0.000197     0.498038    Uiso  ? Co
   Co7        1.0     0.166658     0.333261     0.830900    Uiso  ? Co
   Co8        1.0     0.166454     0.833416     0.830992    Uiso  ? Co
   Co9        1.0     0.666984     0.833399     0.830986    Uiso  ? Co
   Co10       1.0     0.000117     0.712084    -0.000269    Uiso  ? Co
   Co11       1.0     0.000244     0.288487    -0.000812    Uiso  ? Co
   Co12       1.0     0.287480    -0.000325     0.000481    Uiso  ? Co
   Co13       1.0     0.288214     0.288469    -0.000783    Uiso  ? Co
   Co14       1.0     0.711998     0.712100    -0.000252    Uiso  ? Co
   Co15       1.0     0.712239    -0.000244     0.000451    Uiso  ? Co
   Co16       1.0     0.378590     0.333595     0.334206    Uiso  ? Co
   Co17       1.0     0.378288     0.045004     0.333484    Uiso  ? Co
   Co18       1.0     0.666784     0.045007     0.333478    Uiso  ? Co
   Co19       1.0     0.666745     0.621666     0.333453    Uiso  ? Co
   Co20       1.0     0.954952     0.333522     0.334218    Uiso  ? Co
   Co21       1.0     0.954858     0.621636     0.333483    Uiso  ? Co
   Co22       1.0     0.045126     0.666559     0.666690    Uiso  ? Co
   Co23       1.0     0.045404     0.378791     0.666511    Uiso  ? Co
   Co24       1.0     0.333559     0.954635     0.666771    Uiso  ? Co
   Co25       1.0     0.333445     0.378774     0.666494    Uiso  ? Co
   Co26       1.0     0.621371     0.666470     0.666709    Uiso  ? Co
   Co27       1.0     0.621000     0.954585     0.666806    Uiso  ? Co
   Co28       1.0     0.667889     0.833788     0.178827    Uiso  ? Co
   Co29       1.0     0.165821     0.833794     0.178833    Uiso  ? Co
   Co30       1.0     0.334946     0.167753     0.512888    Uiso  ? Co
   Co31       1.0     0.832603     0.665280     0.512658    Uiso  ? Co
   Co32       1.0     0.832745     0.167737     0.512896    Uiso  ? Co
   Co33       1.0     0.000732     0.500448     0.845794    Uiso  ? Co
   Co34       1.0     0.499593     0.999245     0.845973    Uiso  ? Co
   Co35       1.0     0.499657     0.500421     0.845785    Uiso  ? Co
   Cr1        1.0     0.665582     0.331260     0.246231    Uiso  ? Cr
   Cr2        1.0     0.333557     0.667162     0.575370    Uiso  ? Cr
   Cr3        1.0     0.000639     0.001358     0.908654    Uiso  ? Cr
   Cr4        1.0     0.666513     0.333030     0.421405    Uiso  ? Cr
   Cr5        1.0     0.333184     0.666361     0.752916    Uiso  ? Cr
   Cr6        1.0    -0.001814    -0.003633     0.088284    Uiso  ? Cr
   Cr7        1.0     0.993906     0.498363     0.158027    Uiso  ? Cr
   Cr8        1.0     0.504964     0.009856     0.158216    Uiso  ? Cr
   Cr9        1.0     0.504535     0.498385     0.158041    Uiso  ? Cr
   Cr10       1.0     0.655293     0.827720     0.491842    Uiso  ? Cr
   Cr11       1.0     0.172283     0.344485     0.490385    Uiso  ? Cr
   Cr12       1.0     0.172471     0.827706     0.491850    Uiso  ? Cr
   Cr13       1.0     0.322643     0.160958     0.825047    Uiso  ? Cr
   Cr14       1.0     0.838831     0.677609     0.825726    Uiso  ? Cr
   Cr15       1.0     0.838376     0.160980     0.825037    Uiso  ? Cr
   Cr16       1.0     0.164165     0.328397     0.178401    Uiso  ? Cr
