
#======================================================================
# CRYSTAL DATA
#----------------------------------------------------------------------
data_VESTA_phase_1

_chemical_name_common                  'Sm6 Co51                              '
_cell_length_a                         8.317354
_cell_length_b                         8.340020
_cell_length_c                         12.254597
_cell_angle_alpha                      89.999275
_cell_angle_beta                       90.023018
_cell_angle_gamma                      120.093689
_cell_volume                           735.480441
_space_group_name_H-M_alt              'P 1'
_space_group_IT_number                 1

loop_
_space_group_symop_operation_xyz
   'x, y, z'

loop_
   _atom_site_label
   _atom_site_occupancy
   _atom_site_fract_x
   _atom_site_fract_y
   _atom_site_fract_z
   _atom_site_adp_type
   _atom_site_U_iso_or_equiv
   _atom_site_type_symbol
   Sm1        1.0     0.334426     0.667209     0.003136    Uiso  ? Sm
   Sm2        1.0     0.666440     0.333233     0.989362    Uiso  ? Sm
   Sm3        1.0     0.338619     0.669345     0.323156    Uiso  ? Sm
   Sm4        1.0     0.993012     0.996501     0.341720    Uiso  ? Sm
   Sm5        1.0     0.000483     0.000241     0.654803    Uiso  ? Sm
   Sm6        1.0     0.666069     0.333027     0.671826    Uiso  ? Sm
   Co1        1.0     0.834976     0.170746     0.165090    Uiso  ? Co
   Co2        1.0     0.334422     0.167194     0.165442    Uiso  ? Co
   Co3        1.0     0.834959     0.664180     0.165088    Uiso  ? Co
   Co4        1.0     0.500075     0.499826     0.498518    Uiso  ? Co
   Co5        1.0     0.000719     0.500354     0.499092    Uiso  ? Co
   Co6        1.0     0.500097     0.000259     0.498522    Uiso  ? Co
   Co7        1.0     0.166016     0.332303     0.830269    Uiso  ? Co
   Co8        1.0     0.166008     0.833674     0.830267    Uiso  ? Co
   Co9        1.0     0.667356     0.833656     0.831124    Uiso  ? Co
   Co10       1.0     0.000834     0.710458     0.999225    Uiso  ? Co
   Co11       1.0     0.000834     0.290384     0.999218    Uiso  ? Co
   Co12       1.0     0.289204     0.999557     0.999527    Uiso  ? Co
   Co13       1.0     0.289236     0.289673     0.999527    Uiso  ? Co
   Co14       1.0     0.708779     0.709681     0.000859    Uiso  ? Co
   Co15       1.0     0.708812     0.999115     0.000867    Uiso  ? Co
   Co16       1.0     0.373184     0.331122     0.334977    Uiso  ? Co
   Co17       1.0     0.373168     0.042040     0.334977    Uiso  ? Co
   Co18       1.0     0.667396     0.046028     0.333885    Uiso  ? Co
   Co19       1.0     0.667404     0.621412     0.333872    Uiso  ? Co
   Co20       1.0     0.959245     0.334588     0.334602    Uiso  ? Co
   Co21       1.0     0.959263     0.624699     0.334595    Uiso  ? Co
   Co22       1.0     0.042611     0.666028     0.666449    Uiso  ? Co
   Co23       1.0     0.042594     0.376566     0.666427    Uiso  ? Co
   Co24       1.0     0.333793     0.956228     0.666612    Uiso  ? Co
   Co25       1.0     0.333780     0.377547     0.666598    Uiso  ? Co
   Co26       1.0     0.623336     0.666041     0.667501    Uiso  ? Co
   Co27       1.0     0.623345     0.957303     0.667495    Uiso  ? Co
   Co28       1.0     0.665680     0.832835     0.177118    Uiso  ? Co
   Co29       1.0     0.332726     0.166367     0.512817    Uiso  ? Co
   Co30       1.0     0.833674     0.665968     0.512727    Uiso  ? Co
   Co31       1.0     0.833664     0.167690     0.512707    Uiso  ? Co
   Co32       1.0     0.999034     0.499520     0.842747    Uiso  ? Co
   Co33       1.0     0.500438     0.001149     0.843651    Uiso  ? Co
   Co34       1.0     0.500438     0.499298     0.843634    Uiso  ? Co
   Cr1        1.0     0.664983     0.332510     0.246429    Uiso  ? Cr
   Cr2        1.0     0.334211     0.667093     0.577148    Uiso  ? Cr
   Cr3        1.0     0.000584     0.000300     0.908205    Uiso  ? Cr
   Cr4        1.0     0.666469     0.333261     0.419847    Uiso  ? Cr
   Cr5        1.0     0.333448     0.666726     0.753237    Uiso  ? Cr
   Cr6        1.0     0.992906     0.996437     0.085619    Uiso  ? Cr
   Cr7        1.0     0.995015     0.497527     0.159176    Uiso  ? Cr
   Cr8        1.0     0.507344     0.008879     0.159890    Uiso  ? Cr
   Cr9        1.0     0.507363     0.498467     0.159865    Uiso  ? Cr
   Cr10       1.0     0.655154     0.827589     0.495191    Uiso  ? Cr
   Cr11       1.0     0.172444     0.343970     0.491233    Uiso  ? Cr
   Cr12       1.0     0.172439     0.828463     0.491245    Uiso  ? Cr
   Cr13       1.0     0.323805     0.161906     0.825551    Uiso  ? Cr
   Cr14       1.0     0.837561     0.677050     0.826820    Uiso  ? Cr
   Cr15       1.0     0.837566     0.160523     0.826823    Uiso  ? Cr
   Cr16       1.0     0.166295     0.328698     0.176835    Uiso  ? Cr
   Cr17       1.0     0.166264     0.837555     0.176854    Uiso  ? Cr
