
#======================================================================
# CRYSTAL DATA
#----------------------------------------------------------------------
data_VESTA_phase_1

_chemical_name_common                  'Sm6 Co51                              '
_cell_length_a                         8.330591
_cell_length_b                         8.330626
_cell_length_c                         12.279643
_cell_angle_alpha                      89.997749
_cell_angle_beta                       90.000732
_cell_angle_gamma                      119.997108
_cell_volume                           738.044442
_space_group_name_H-M_alt              'P 1'
_space_group_IT_number                 1

loop_
_space_group_symop_operation_xyz
   'x, y, z'

loop_
   _atom_site_label
   _atom_site_occupancy
   _atom_site_fract_x
   _atom_site_fract_y
   _atom_site_fract_z
   _atom_site_adp_type
   _atom_site_U_iso_or_equiv
   _atom_site_type_symbol
   Sm1        1.0     0.333317     0.666636     0.003325    Uiso  ? Sm
   Sm2        1.0     0.666699     0.333377     0.989105    Uiso  ? Sm
   Sm3        1.0     0.333322     0.666660     0.322893    Uiso  ? Sm
   Sm4        1.0     0.000020     0.999991     0.345097    Uiso  ? Sm
   Sm5        1.0     0.999981    -0.000003     0.654749    Uiso  ? Sm
   Sm6        1.0     0.666639     0.333352     0.671253    Uiso  ? Sm
   Co1        1.0     0.833018     0.166978     0.165849    Uiso  ? Co
   Co2        1.0     0.333954     0.166961     0.165866    Uiso  ? Co
   Co3        1.0     0.833040     0.666057     0.165859    Uiso  ? Co
   Co4        1.0     0.499849     0.500132     0.498844    Uiso  ? Co
   Co5        1.0     0.000311     0.500155     0.498828    Uiso  ? Co
   Co6        1.0     0.499832     0.999686     0.498854    Uiso  ? Co
   Co7        1.0     0.166477     0.332909     0.830633    Uiso  ? Co
   Co8        1.0     0.166418     0.833569     0.830626    Uiso  ? Co
   Co9        1.0     0.667126     0.833534     0.830616    Uiso  ? Co
   Co10       1.0     0.000680     0.710236     0.999524    Uiso  ? Co
   Co11       1.0     0.000702     0.290472     0.999536    Uiso  ? Co
   Co12       1.0     0.289767     0.999326     0.999536    Uiso  ? Co
   Co13       1.0     0.289760     0.290449     0.999520    Uiso  ? Co
   Co14       1.0     0.709570     0.710249     0.999520    Uiso  ? Co
   Co15       1.0     0.709545     0.999317     0.999546    Uiso  ? Co
   Co16       1.0     0.375562     0.333304     0.334552    Uiso  ? Co
   Co17       1.0     0.375563     0.042262     0.334545    Uiso  ? Co
   Co18       1.0     0.666682     0.042287     0.334532    Uiso  ? Co
   Co19       1.0     0.666682     0.624413     0.334543    Uiso  ? Co
   Co20       1.0     0.957756     0.333329     0.334539    Uiso  ? Co
   Co21       1.0     0.957766     0.624445     0.334543    Uiso  ? Co
   Co22       1.0     0.042904     0.666051     0.666979    Uiso  ? Co
   Co23       1.0     0.042894     0.376835     0.666980    Uiso  ? Co
   Co24       1.0     0.333940     0.957097     0.666963    Uiso  ? Co
   Co25       1.0     0.333932     0.376813     0.666986    Uiso  ? Co
   Co26       1.0     0.623154     0.666062     0.666993    Uiso  ? Co
   Co27       1.0     0.623142     0.957086     0.666971    Uiso  ? Co
   Co28       1.0     0.332883     0.166427     0.511954    Uiso  ? Co
   Co29       1.0     0.833576     0.667116     0.511946    Uiso  ? Co
   Co30       1.0     0.833560     0.166449     0.511945    Uiso  ? Co
   Co31       1.0     0.999387     0.499729     0.842663    Uiso  ? Co
   Co32       1.0     0.500275     0.000588     0.842638    Uiso  ? Co
   Co33       1.0     0.500318     0.499700     0.842648    Uiso  ? Co
   Cr1        1.0     0.666676     0.333335     0.248415    Uiso  ? Cr
   Cr2        1.0     0.333319     0.666637     0.576457    Uiso  ? Cr
   Cr3        1.0     0.000006    -0.000018     0.905218    Uiso  ? Cr
   Cr4        1.0     0.666673     0.333377     0.421570    Uiso  ? Cr
   Cr5        1.0     0.333333     0.666584     0.753881    Uiso  ? Cr
   Cr6        1.0     0.999989     0.000017     0.086147    Uiso  ? Cr
   Cr7        1.0     0.990625     0.495318     0.159267    Uiso  ? Cr
   Cr8        1.0     0.504677     0.009368     0.159260    Uiso  ? Cr
   Cr9        1.0     0.504691     0.495307     0.159268    Uiso  ? Cr
   Cr10       1.0     0.654730     0.827345     0.493707    Uiso  ? Cr
   Cr11       1.0     0.172648     0.345266     0.493718    Uiso  ? Cr
   Cr12       1.0     0.172633     0.827356     0.493704    Uiso  ? Cr
   Cr13       1.0     0.321830     0.160964     0.825796    Uiso  ? Cr
   Cr14       1.0     0.839057     0.678151     0.825798    Uiso  ? Cr
   Cr15       1.0     0.839111     0.160961     0.825814    Uiso  ? Cr
   Cr16       1.0     0.162495     0.325000     0.176491    Uiso  ? Cr
   Cr17       1.0     0.162522     0.837491     0.176495    Uiso  ? Cr
   Cr18       1.0     0.674986     0.837506     0.176492    Uiso  ? Cr
