
#======================================================================
# CRYSTAL DATA
#----------------------------------------------------------------------
data_VESTA_phase_1

_chemical_name_common                  'Sm9 Co27                              '
_cell_length_a                         5.038222
_cell_length_b                         5.038222
_cell_length_c                         24.752378
_cell_angle_alpha                      90.000000
_cell_angle_beta                       90.000000
_cell_angle_gamma                      120.000000
_cell_volume                           544.129438
_space_group_name_H-M_alt              'P 1'
_space_group_IT_number                 1

loop_
_space_group_symop_operation_xyz
   'x, y, z'

loop_
   _atom_site_label
   _atom_site_occupancy
   _atom_site_fract_x
   _atom_site_fract_y
   _atom_site_fract_z
   _atom_site_adp_type
   _atom_site_U_iso_or_equiv
   _atom_site_type_symbol
   Sm1        1.0     0.000000     0.000000     -0.000000    Uiso  ? Sm
   Sm2        1.0     0.666667     0.333333     0.334637    Uiso  ? Sm
   Sm3        1.0     0.333333     0.666667     0.665363    Uiso  ? Sm
   Sm4        1.0     0.666667     0.333333     0.195654    Uiso  ? Sm
   Sm5        1.0     0.000000     0.000000     0.139086    Uiso  ? Sm
   Sm6        1.0     0.333333     0.666667     0.526411    Uiso  ? Sm
   Sm7        1.0     0.666667     0.333333     0.473589    Uiso  ? Sm
   Sm8        1.0     0.000000     0.000000     0.860914    Uiso  ? Sm
   Sm9        1.0     0.333333     0.666667     0.804346    Uiso  ? Sm
   Co1        1.0     0.000000     0.000000     0.500000    Uiso  ? Co
   Co2        1.0     0.333333     0.666667     0.334024    Uiso  ? Co
   Co3        1.0     0.333333     0.666667     0.000783    Uiso  ? Co
   Co4        1.0     0.000000     0.000000     0.664444    Uiso  ? Co
   Co5        1.0     0.000000     0.000000     0.335556    Uiso  ? Co
   Co6        1.0     0.666667     0.333333     0.999217    Uiso  ? Co
   Co7        1.0     0.666667     0.333333     0.665976    Uiso  ? Co
   Co8        1.0     0.668746     0.834373     0.255370    Uiso  ? Co
   Co9        1.0     0.165627     0.331254     0.255370    Uiso  ? Co
   Co10       1.0     0.165627     0.834373     0.255370    Uiso  ? Co
   Co11       1.0    -0.001711     0.499145     0.079668    Uiso  ? Co
   Co12       1.0     0.500855     0.001711     0.079668    Uiso  ? Co
   Co13       1.0     0.500855     0.499145     0.079668    Uiso  ? Co
   Co14       1.0     0.332392     0.166196     0.585612    Uiso  ? Co
   Co15       1.0     0.833804     0.667608     0.585612    Uiso  ? Co
   Co16       1.0     0.833804     0.166196     0.585612    Uiso  ? Co
   Co17       1.0     0.667608     0.833804     0.414388    Uiso  ? Co
   Co18       1.0     0.166196     0.332392     0.414388    Uiso  ? Co
   Co19       1.0     0.166196     0.833804     0.414388    Uiso  ? Co
   Co20       1.0     0.001711     0.500855     0.920332    Uiso  ? Co
   Co21       1.0     0.499145    -0.001711     0.920332    Uiso  ? Co
   Co22       1.0     0.499145     0.500855     0.920332    Uiso  ? Co
   Co23       1.0     0.331254     0.165627     0.744630    Uiso  ? Co
   Co24       1.0     0.834373     0.668746     0.744630    Uiso  ? Co
   Co25       1.0     0.834373     0.165627     0.744630    Uiso  ? Co
   Cr1        1.0     0.666667     0.333333     0.832359    Uiso  ? Cr
   Cr2        1.0     0.333333     0.666667     0.167641    Uiso  ? Cr
