
#======================================================================
# CRYSTAL DATA
#----------------------------------------------------------------------
data_VESTA_phase_1

_chemical_name_common                  'Sm6 Co51                              '
_cell_length_a                         8.335112
_cell_length_b                         8.335112
_cell_length_c                         12.163837
_cell_angle_alpha                      90.000000
_cell_angle_beta                       90.000000
_cell_angle_gamma                      120.000000
_cell_volume                           731.853373
_space_group_name_H-M_alt              'P 1'
_space_group_IT_number                 1

loop_
_space_group_symop_operation_xyz
   'x, y, z'

loop_
   _atom_site_label
   _atom_site_occupancy
   _atom_site_fract_x
   _atom_site_fract_y
   _atom_site_fract_z
   _atom_site_adp_type
   _atom_site_U_iso_or_equiv
   _atom_site_type_symbol
   Sm1        1.0     0.333333     0.666667     0.010124    Uiso  ? Sm
   Sm2        1.0     0.666667     0.333333     0.985360    Uiso  ? Sm
   Sm3        1.0     0.333333     0.666667     0.318694    Uiso  ? Sm
   Sm4        1.0     0.000000     -0.000000     0.343414    Uiso  ? Sm
   Sm5        1.0     0.000000     0.000000     0.652067    Uiso  ? Sm
   Sm6        1.0     0.666667     0.333333     0.676797    Uiso  ? Sm
   Co1        1.0     0.000000     0.000000     0.093621    Uiso  ? Co
   Co2        1.0     0.666667     0.333333     0.427188    Uiso  ? Co
   Co3        1.0     0.333333     0.666667     0.760529    Uiso  ? Co
   Co4        1.0     0.832982     0.167018     0.166630    Uiso  ? Co
   Co5        1.0     0.334034     0.167018     0.166630    Uiso  ? Co
   Co6        1.0     0.832982     0.665966     0.166630    Uiso  ? Co
   Co7        1.0     0.499521     0.500479     0.500003    Uiso  ? Co
   Co8        1.0     0.000958     0.500479     0.500003    Uiso  ? Co
   Co9        1.0     0.499521     0.999042     0.500003    Uiso  ? Co
   Co10       1.0     0.166308     0.332616     0.833377    Uiso  ? Co
   Co11       1.0     0.166308     0.833692     0.833377    Uiso  ? Co
   Co12       1.0     0.667384     0.833692     0.833377    Uiso  ? Co
   Co13       1.0     0.000443     0.712565     0.000943    Uiso  ? Co
   Co14       1.0     0.000443     0.287878     0.000943    Uiso  ? Co
   Co15       1.0     0.287435     0.999557     0.000943    Uiso  ? Co
   Co16       1.0     0.287435     0.287878     0.000943    Uiso  ? Co
   Co17       1.0     0.712122     0.712565     0.000943    Uiso  ? Co
   Co18       1.0     0.712122     0.999557     0.000943    Uiso  ? Co
   Co19       1.0     0.378864     0.332902     0.334320    Uiso  ? Co
   Co20       1.0     0.378864     0.045962     0.334320    Uiso  ? Co
   Co21       1.0     0.667098     0.045962     0.334320    Uiso  ? Co
   Co22       1.0     0.667098     0.621136     0.334320    Uiso  ? Co
   Co23       1.0     0.954038     0.332902     0.334320    Uiso  ? Co
   Co24       1.0     0.954038     0.621136     0.334320    Uiso  ? Co
   Co25       1.0     0.045581     0.666259     0.667611    Uiso  ? Co
   Co26       1.0     0.045581     0.379323     0.667611    Uiso  ? Co
   Co27       1.0     0.333741     0.954419     0.667611    Uiso  ? Co
   Co28       1.0     0.333741     0.379323     0.667611    Uiso  ? Co
   Co29       1.0     0.620677     0.666259     0.667611    Uiso  ? Co
   Co30       1.0     0.620677     0.954419     0.667611    Uiso  ? Co
   Co31       1.0     0.993951     0.496975     0.154309    Uiso  ? Co
   Co32       1.0     0.503025     0.006049     0.154309    Uiso  ? Co
   Co33       1.0     0.503025     0.496975     0.154309    Uiso  ? Co
   Co34       1.0     0.671621     0.835810     0.179086    Uiso  ? Co
   Co35       1.0     0.164190     0.328379     0.179086    Uiso  ? Co
   Co36       1.0     0.164190     0.835810     0.179086    Uiso  ? Co
   Co37       1.0     0.660805     0.830402     0.487565    Uiso  ? Co
   Co38       1.0     0.169598     0.339195     0.487565    Uiso  ? Co
   Co39       1.0     0.169598     0.830402     0.487565    Uiso  ? Co
   Co40       1.0     0.338330     0.169165     0.512487    Uiso  ? Co
   Co41       1.0     0.830835     0.661670     0.512487    Uiso  ? Co
   Co42       1.0     0.830835     0.169165     0.512487    Uiso  ? Co
   Co43       1.0     0.327357     0.163679     0.820899    Uiso  ? Co
   Co44       1.0     0.836321     0.672643     0.820899    Uiso  ? Co
   Co45       1.0     0.836321     0.163679     0.820899    Uiso  ? Co
   Co46       1.0     0.004950     0.502475     0.845700    Uiso  ? Co
   Co47       1.0     0.497525     0.995050     0.845700    Uiso  ? Co
   Co48       1.0     0.497525     0.502475     0.845700    Uiso  ? Co
   Cr1        1.0     0.666667     0.333333     0.238425    Uiso  ? Cr
   Cr2        1.0     0.333333     0.666667     0.571605    Uiso  ? Cr
   Cr3        1.0     0.000000     0.000000     0.904762    Uiso  ? Cr
