
#======================================================================
# CRYSTAL DATA
#----------------------------------------------------------------------
data_VESTA_phase_1

_chemical_name_common                  'Sm6 Co51                              '
_cell_length_a                         8.353209
_cell_length_b                         8.353209
_cell_length_c                         12.138676
_cell_angle_alpha                      90.000000
_cell_angle_beta                       90.000000
_cell_angle_gamma                      120.000000
_cell_volume                           733.514305
_space_group_name_H-M_alt              'P 1'
_space_group_IT_number                 1

loop_
_space_group_symop_operation_xyz
   'x, y, z'

loop_
   _atom_site_label
   _atom_site_occupancy
   _atom_site_fract_x
   _atom_site_fract_y
   _atom_site_fract_z
   _atom_site_adp_type
   _atom_site_U_iso_or_equiv
   _atom_site_type_symbol
   Sm1        1.0     0.333333     0.666667     0.010438    Uiso  ? Sm
   Sm2        1.0     0.666667     0.333333    -0.010373    Uiso  ? Sm
   Sm3        1.0     0.333333     0.666667     0.319154    Uiso  ? Sm
   Sm4        1.0     0.000000     0.000000     0.344339    Uiso  ? Sm
   Sm5        1.0     0.000000     0.000000     0.652389    Uiso  ? Sm
   Sm6        1.0     0.666667     0.333333     0.677134    Uiso  ? Sm
   Co1        1.0     0.000000     0.000000     0.097554    Uiso  ? Co
   Co2        1.0     0.333333     0.666667     0.764576    Uiso  ? Co
   Co3        1.0     0.833684     0.166316     0.167207    Uiso  ? Co
   Co4        1.0     0.332630     0.166316     0.167207    Uiso  ? Co
   Co5        1.0     0.833684     0.667370     0.167207    Uiso  ? Co
   Co6        1.0     0.501280     0.498720     0.499818    Uiso  ? Co
   Co7        1.0    -0.002561     0.498720     0.499818    Uiso  ? Co
   Co8        1.0     0.501280     0.002561     0.499818    Uiso  ? Co
   Co9        1.0     0.167814     0.335628     0.833561    Uiso  ? Co
   Co10       1.0     0.167814     0.832186     0.833561    Uiso  ? Co
   Co11       1.0     0.664372     0.832186     0.833561    Uiso  ? Co
   Co12       1.0     0.000077     0.713011     0.000782    Uiso  ? Co
   Co13       1.0     0.000077     0.287066     0.000782    Uiso  ? Co
   Co14       1.0     0.286989    -0.000077     0.000782    Uiso  ? Co
   Co15       1.0     0.286989     0.287066     0.000782    Uiso  ? Co
   Co16       1.0     0.712934     0.713011     0.000782    Uiso  ? Co
   Co17       1.0     0.712934    -0.000077     0.000782    Uiso  ? Co
   Co18       1.0     0.373398     0.332836     0.333782    Uiso  ? Co
   Co19       1.0     0.373398     0.040561     0.333782    Uiso  ? Co
   Co20       1.0     0.667164     0.040561     0.333782    Uiso  ? Co
   Co21       1.0     0.667164     0.626602     0.333782    Uiso  ? Co
   Co22       1.0     0.959439     0.332836     0.333782    Uiso  ? Co
   Co23       1.0     0.959439     0.626602     0.333782    Uiso  ? Co
   Co24       1.0     0.045681     0.665535     0.667378    Uiso  ? Co
   Co25       1.0     0.045681     0.380147     0.667378    Uiso  ? Co
   Co26       1.0     0.334465     0.954319     0.667378    Uiso  ? Co
   Co27       1.0     0.334465     0.380147     0.667378    Uiso  ? Co
   Co28       1.0     0.619853     0.665535     0.667378    Uiso  ? Co
   Co29       1.0     0.619853     0.954319     0.667378    Uiso  ? Co
   Co30       1.0     0.995605     0.497802     0.153747    Uiso  ? Co
   Co31       1.0     0.502198     0.004395     0.153747    Uiso  ? Co
   Co32       1.0     0.502198     0.497802     0.153747    Uiso  ? Co
   Co33       1.0     0.671281     0.835640     0.177796    Uiso  ? Co
   Co34       1.0     0.164360     0.328719     0.177796    Uiso  ? Co
   Co35       1.0     0.164360     0.835640     0.177796    Uiso  ? Co
   Co36       1.0     0.661918     0.830959     0.488059    Uiso  ? Co
   Co37       1.0     0.169041     0.338082     0.488059    Uiso  ? Co
   Co38       1.0     0.169041     0.830959     0.488059    Uiso  ? Co
   Co39       1.0     0.338291     0.169146     0.512457    Uiso  ? Co
   Co40       1.0     0.830854     0.661709     0.512457    Uiso  ? Co
   Co41       1.0     0.830854     0.169146     0.512457    Uiso  ? Co
   Co42       1.0     0.329988     0.164994     0.819880    Uiso  ? Co
   Co43       1.0     0.835006     0.670012     0.819880    Uiso  ? Co
   Co44       1.0     0.835006     0.164994     0.819880    Uiso  ? Co
   Co45       1.0     0.003827     0.501914     0.845994    Uiso  ? Co
   Co46       1.0     0.498086     0.996173     0.845994    Uiso  ? Co
   Co47       1.0     0.498086     0.501914     0.845994    Uiso  ? Co
   Cr1        1.0     0.666667     0.333333     0.248891    Uiso  ? Cr
   Cr2        1.0     0.333333     0.666667     0.570062    Uiso  ? Cr
   Cr3        1.0     0.000000     0.000000     0.902913    Uiso  ? Cr
   Cr4        1.0     0.666667     0.333333     0.415709    Uiso  ? Cr
