
#======================================================================
# CRYSTAL DATA
#----------------------------------------------------------------------
data_VESTA_phase_1

_chemical_name_common                  'Sm9 Co27                              '
_cell_length_a                         5.111801
_cell_length_b                         5.025583
_cell_length_c                         24.828178
_cell_angle_alpha                      90.274834
_cell_angle_beta                       89.999519
_cell_angle_gamma                      120.569267
_cell_volume                           549.173034
_space_group_name_H-M_alt              'P 1'
_space_group_IT_number                 1

loop_
_space_group_symop_operation_xyz
   'x, y, z'

loop_
   _atom_site_label
   _atom_site_occupancy
   _atom_site_fract_x
   _atom_site_fract_y
   _atom_site_fract_z
   _atom_site_adp_type
   _atom_site_U_iso_or_equiv
   _atom_site_type_symbol
   Sm1        1.0     0.999884     0.999780     0.000168    Uiso  ? Sm
   Sm2        1.0     0.666599     0.333199     0.332689    Uiso  ? Sm
   Sm3        1.0     0.333645     0.667288     0.666839    Uiso  ? Sm
   Sm4        1.0     0.666768     0.333536     0.195000    Uiso  ? Sm
   Sm5        1.0     0.999709     0.999417     0.138658    Uiso  ? Sm
   Sm6        1.0     0.332411     0.664814     0.528569    Uiso  ? Sm
   Sm7        1.0     0.663172     0.326331     0.472675    Uiso  ? Sm
   Sm8        1.0     0.000465     0.000926     0.861496    Uiso  ? Sm
   Sm9        1.0     0.333422     0.666842     0.805404    Uiso  ? Sm
   Co1        1.0     0.333999     0.668015     0.331660    Uiso  ? Co
   Co2        1.0     0.337469     0.674969     0.001101    Uiso  ? Co
   Co3        1.0     0.995369     0.990729     0.665663    Uiso  ? Co
   Co4        1.0     0.000556     0.001102     0.333436    Uiso  ? Co
   Co5        1.0     0.662328     0.324654     0.999349    Uiso  ? Co
   Co6        1.0     0.671879     0.343747     0.667646    Uiso  ? Co
   Co7        1.0     0.667737     0.834196     0.253522    Uiso  ? Co
   Co8        1.0     0.165052     0.330110     0.253910    Uiso  ? Co
   Co9        1.0     0.166456     0.834196     0.253521    Uiso  ? Co
   Co10       1.0     0.998555     0.498817     0.079326    Uiso  ? Co
   Co11       1.0     0.501764     0.003531     0.080138    Uiso  ? Co
   Co12       1.0     0.500260     0.498818     0.079325    Uiso  ? Co
   Co13       1.0     0.335166     0.167720     0.587719    Uiso  ? Co
   Co14       1.0     0.831318     0.662634     0.586893    Uiso  ? Co
   Co15       1.0     0.832559     0.167721     0.587720    Uiso  ? Co
   Co16       1.0     0.668498     0.831246     0.413361    Uiso  ? Co
   Co17       1.0     0.162750     0.831256     0.413362    Uiso  ? Co
   Co18       1.0     0.001333     0.501190     0.921209    Uiso  ? Co
   Co19       1.0     0.498234     0.996469     0.920322    Uiso  ? Co
   Co20       1.0     0.499853     0.501192     0.921210    Uiso  ? Co
   Co21       1.0     0.332565     0.166479     0.745574    Uiso  ? Co
   Co22       1.0     0.835859     0.671716     0.746590    Uiso  ? Co
   Co23       1.0     0.833924     0.166468     0.745573    Uiso  ? Co
   Cr1        1.0     0.666990     0.333980     0.833360    Uiso  ? Cr
   Cr2        1.0     0.332768     0.665536     0.166586    Uiso  ? Cr
   Cr3        1.0     0.996863     0.993747     0.500622    Uiso  ? Cr
   Cr4        1.0     0.173822     0.347630     0.409803    Uiso  ? Cr
