
#======================================================================
# CRYSTAL DATA
#----------------------------------------------------------------------
data_VESTA_phase_1

_chemical_name_common                  'Sm6 Co51                              '
_cell_length_a                         8.356780
_cell_length_b                         8.356780
_cell_length_c                         12.121516
_cell_angle_alpha                      90.000000
_cell_angle_beta                       90.000000
_cell_angle_gamma                      120.000000
_cell_volume                           733.103888
_space_group_name_H-M_alt              'P 1'
_space_group_IT_number                 1

loop_
_space_group_symop_operation_xyz
   'x, y, z'

loop_
   _atom_site_label
   _atom_site_occupancy
   _atom_site_fract_x
   _atom_site_fract_y
   _atom_site_fract_z
   _atom_site_adp_type
   _atom_site_U_iso_or_equiv
   _atom_site_type_symbol
   Sm1        1.0     0.333333     0.666667     0.009985    Uiso  ? Sm
   Sm2        1.0     0.666667     0.333333    -0.010404    Uiso  ? Sm
   Sm3        1.0     0.333333     0.666667     0.322724    Uiso  ? Sm
   Sm4        1.0     0.000000     -0.000000     0.344394    Uiso  ? Sm
   Sm5        1.0     0.000000     -0.000000     0.652454    Uiso  ? Sm
   Sm6        1.0     0.666667     0.333333     0.677675    Uiso  ? Sm
   Co1        1.0     0.000000     -0.000000     0.098015    Uiso  ? Co
   Co2        1.0     0.834029     0.165971     0.167237    Uiso  ? Co
   Co3        1.0     0.331940     0.165971     0.167237    Uiso  ? Co
   Co4        1.0     0.834029     0.668060     0.167237    Uiso  ? Co
   Co5        1.0     0.499956     0.500045     0.500024    Uiso  ? Co
   Co6        1.0     0.000089     0.500045     0.500024    Uiso  ? Co
   Co7        1.0     0.499956    -0.000089     0.500024    Uiso  ? Co
   Co8        1.0     0.167808     0.335616     0.832758    Uiso  ? Co
   Co9        1.0     0.167808     0.832192     0.832758    Uiso  ? Co
   Co10       1.0     0.664384     0.832192     0.832758    Uiso  ? Co
   Co11       1.0     0.000527     0.712918     0.000584    Uiso  ? Co
   Co12       1.0     0.000527     0.287610     0.000584    Uiso  ? Co
   Co13       1.0     0.287082    -0.000527     0.000584    Uiso  ? Co
   Co14       1.0     0.287082     0.287610     0.000584    Uiso  ? Co
   Co15       1.0     0.712390     0.712918     0.000584    Uiso  ? Co
   Co16       1.0     0.712390    -0.000527     0.000584    Uiso  ? Co
   Co17       1.0     0.373866     0.333665     0.333633    Uiso  ? Co
   Co18       1.0     0.373866     0.040199     0.333633    Uiso  ? Co
   Co19       1.0     0.666335     0.040199     0.333633    Uiso  ? Co
   Co20       1.0     0.666335     0.626134     0.333633    Uiso  ? Co
   Co21       1.0     0.959801     0.333665     0.333633    Uiso  ? Co
   Co22       1.0     0.959801     0.626134     0.333633    Uiso  ? Co
   Co23       1.0     0.039738     0.665985     0.666732    Uiso  ? Co
   Co24       1.0     0.039738     0.373755     0.666732    Uiso  ? Co
   Co25       1.0     0.334015     0.960261     0.666732    Uiso  ? Co
   Co26       1.0     0.334015     0.373755     0.666732    Uiso  ? Co
   Co27       1.0     0.626245     0.665985     0.666732    Uiso  ? Co
   Co28       1.0     0.626245     0.960261     0.666732    Uiso  ? Co
   Co29       1.0     0.996017     0.498008     0.153442    Uiso  ? Co
   Co30       1.0     0.501992     0.003983     0.153442    Uiso  ? Co
   Co31       1.0     0.501992     0.498008     0.153442    Uiso  ? Co
   Co32       1.0     0.670714     0.835357     0.178199    Uiso  ? Co
   Co33       1.0     0.164644     0.329286     0.178199    Uiso  ? Co
   Co34       1.0     0.164644     0.835357     0.178199    Uiso  ? Co
   Co35       1.0     0.661188     0.830594     0.488454    Uiso  ? Co
   Co36       1.0     0.169406     0.338812     0.488454    Uiso  ? Co
   Co37       1.0     0.169406     0.830594     0.488454    Uiso  ? Co
   Co38       1.0     0.338953     0.169477     0.511436    Uiso  ? Co
   Co39       1.0     0.830523     0.661047     0.511436    Uiso  ? Co
   Co40       1.0     0.830523     0.169477     0.511436    Uiso  ? Co
   Co41       1.0     0.329865     0.164933     0.821603    Uiso  ? Co
   Co42       1.0     0.835067     0.670135     0.821603    Uiso  ? Co
   Co43       1.0     0.835067     0.164933     0.821603    Uiso  ? Co
   Co44       1.0     0.003658     0.501829     0.845765    Uiso  ? Co
   Co45       1.0     0.498171     0.996342     0.845765    Uiso  ? Co
   Co46       1.0     0.498171     0.501829     0.845765    Uiso  ? Co
   Cr1        1.0     0.666667     0.333333     0.249428    Uiso  ? Cr
   Cr2        1.0     0.333333     0.666667     0.584514    Uiso  ? Cr
   Cr3        1.0     0.000000     -0.000000     0.903117    Uiso  ? Cr
   Cr4        1.0     0.666667     0.333333     0.415852    Uiso  ? Cr
   Cr5        1.0     0.333333     0.666667     0.749791    Uiso  ? Cr
