
#======================================================================
# CRYSTAL DATA
#----------------------------------------------------------------------
data_VESTA_phase_1

_chemical_name_common                  'Sm6 Co51                              '
_cell_length_a                         8.359385
_cell_length_b                         8.359385
_cell_length_c                         12.097156
_cell_angle_alpha                      90.000000
_cell_angle_beta                       90.000000
_cell_angle_gamma                      120.000000
_cell_volume                           732.086846
_space_group_name_H-M_alt              'P 1'
_space_group_IT_number                 1

loop_
_space_group_symop_operation_xyz
   'x, y, z'

loop_
   _atom_site_label
   _atom_site_occupancy
   _atom_site_fract_x
   _atom_site_fract_y
   _atom_site_fract_z
   _atom_site_adp_type
   _atom_site_U_iso_or_equiv
   _atom_site_type_symbol
   Sm1        1.0     0.333333     0.666667     0.010528    Uiso  ? Sm
   Sm2        1.0     0.666667     0.333333    -0.010528    Uiso  ? Sm
   Sm3        1.0     0.333333     0.666667     0.322643    Uiso  ? Sm
   Sm4        1.0     0.000000     0.000000     0.343880    Uiso  ? Sm
   Sm5        1.0     0.000000     0.000000     0.656120    Uiso  ? Sm
   Sm6        1.0     0.666667     0.333333     0.677357    Uiso  ? Sm
   Co1        1.0     0.833347     0.166653     0.166639    Uiso  ? Co
   Co2        1.0     0.333305     0.166653     0.166639    Uiso  ? Co
   Co3        1.0     0.833347     0.666695     0.166639    Uiso  ? Co
   Co4        1.0     0.500000     0.500000     0.500000    Uiso  ? Co
   Co5        1.0     0.000000     0.500000     0.500000    Uiso  ? Co
   Co6        1.0     0.500000     0.000000     0.500000    Uiso  ? Co
   Co7        1.0     0.166653     0.333305     0.833361    Uiso  ? Co
   Co8        1.0     0.166653     0.833347     0.833361    Uiso  ? Co
   Co9        1.0     0.666695     0.833347     0.833361    Uiso  ? Co
   Co10       1.0     0.000000     0.706133     0.000000    Uiso  ? Co
   Co11       1.0     -0.000000     0.293867     0.000000    Uiso  ? Co
   Co12       1.0     0.293867     0.000000     0.000000    Uiso  ? Co
   Co13       1.0     0.293867     0.293867     0.000000    Uiso  ? Co
   Co14       1.0     0.706133     0.706133     0.000000    Uiso  ? Co
   Co15       1.0     0.706133     -0.000000     0.000000    Uiso  ? Co
   Co16       1.0     0.372883     0.333303     0.333359    Uiso  ? Co
   Co17       1.0     0.372883     0.039579     0.333359    Uiso  ? Co
   Co18       1.0     0.666697     0.039579     0.333359    Uiso  ? Co
   Co19       1.0     0.666697     0.627117     0.333359    Uiso  ? Co
   Co20       1.0     0.960421     0.333303     0.333359    Uiso  ? Co
   Co21       1.0     0.960421     0.627117     0.333359    Uiso  ? Co
   Co22       1.0     0.039579     0.666697     0.666641    Uiso  ? Co
   Co23       1.0     0.039579     0.372883     0.666641    Uiso  ? Co
   Co24       1.0     0.333303     0.960421     0.666641    Uiso  ? Co
   Co25       1.0     0.333303     0.372883     0.666641    Uiso  ? Co
   Co26       1.0     0.627117     0.666697     0.666641    Uiso  ? Co
   Co27       1.0     0.627117     0.960421     0.666641    Uiso  ? Co
   Co28       1.0     0.995175     0.497588     0.155141    Uiso  ? Co
   Co29       1.0     0.502412     0.004825     0.155141    Uiso  ? Co
   Co30       1.0     0.502412     0.497588     0.155141    Uiso  ? Co
   Co31       1.0     0.671379     0.835689     0.178230    Uiso  ? Co
   Co32       1.0     0.164311     0.328621     0.178230    Uiso  ? Co
   Co33       1.0     0.164311     0.835689     0.178230    Uiso  ? Co
   Co34       1.0     0.661852     0.830926     0.488339    Uiso  ? Co
   Co35       1.0     0.169074     0.338148     0.488339    Uiso  ? Co
   Co36       1.0     0.169074     0.830926     0.488339    Uiso  ? Co
   Co37       1.0     0.338148     0.169074     0.511661    Uiso  ? Co
   Co38       1.0     0.830926     0.661852     0.511661    Uiso  ? Co
   Co39       1.0     0.830926     0.169074     0.511661    Uiso  ? Co
   Co40       1.0     0.328621     0.164311     0.821770    Uiso  ? Co
   Co41       1.0     0.835689     0.671379     0.821770    Uiso  ? Co
   Co42       1.0     0.835689     0.164311     0.821770    Uiso  ? Co
   Co43       1.0     0.004825     0.502412     0.844859    Uiso  ? Co
   Co44       1.0     0.497588     0.995175     0.844859    Uiso  ? Co
   Co45       1.0     0.497588     0.502412     0.844859    Uiso  ? Co
   Cr1        1.0     0.666667     0.333333     0.251676    Uiso  ? Cr
   Cr2        1.0     0.333333     0.666667     0.584647    Uiso  ? Cr
   Cr3        1.0     0.000000     0.000000     0.918022    Uiso  ? Cr
   Cr4        1.0     0.666667     0.333333     0.415353    Uiso  ? Cr
   Cr5        1.0     0.333333     0.666667     0.748324    Uiso  ? Cr
   Cr6        1.0     0.000000     0.000000     0.081978    Uiso  ? Cr
