
#======================================================================
# CRYSTAL DATA
#----------------------------------------------------------------------
data_VESTA_phase_1

_chemical_name_common                  'Sm6 Co51                              '
_cell_length_a                         8.370318
_cell_length_b                         8.312919
_cell_length_c                         12.145331
_cell_angle_alpha                      90.000000
_cell_angle_beta                       89.912666
_cell_angle_gamma                      119.773407
_cell_volume                           733.536865
_space_group_name_H-M_alt              'P 1'
_space_group_IT_number                 1

loop_
_space_group_symop_operation_xyz
   'x, y, z'

loop_
   _atom_site_label
   _atom_site_occupancy
   _atom_site_fract_x
   _atom_site_fract_y
   _atom_site_fract_z
   _atom_site_adp_type
   _atom_site_U_iso_or_equiv
   _atom_site_type_symbol
   Sm1        1.0     0.337433     0.668717     0.009643    Uiso  ? Sm
   Sm2        1.0     0.663787     0.331893    -0.012479    Uiso  ? Sm
   Sm3        1.0     0.330271     0.665136     0.323209    Uiso  ? Sm
   Sm4        1.0     0.004614     0.002307     0.342761    Uiso  ? Sm
   Sm5        1.0     0.000632     0.000316     0.657629    Uiso  ? Sm
   Sm6        1.0     0.667750     0.333874     0.676475    Uiso  ? Sm
   Co1        1.0     0.833633     0.166581     0.165789    Uiso  ? Co
   Co2        1.0     0.331099     0.165550     0.166466    Uiso  ? Co
   Co3        1.0     0.833633     0.667053     0.165789    Uiso  ? Co
   Co4        1.0     0.500700     0.499826     0.499221    Uiso  ? Co
   Co5        1.0    -0.001043     0.499478     0.500785    Uiso  ? Co
   Co6        1.0     0.500700     0.000875     0.499221    Uiso  ? Co
   Co7        1.0     0.167452     0.333406     0.833029    Uiso  ? Co
   Co8        1.0     0.167452     0.834044     0.833029    Uiso  ? Co
   Co9        1.0     0.666538     0.833269     0.833386    Uiso  ? Co
   Co10       1.0     0.000378     0.704518    -0.000795    Uiso  ? Co
   Co11       1.0     0.000378     0.295859    -0.000795    Uiso  ? Co
   Co12       1.0     0.291977    -0.001186     0.000207    Uiso  ? Co
   Co13       1.0     0.291977     0.293163     0.000207    Uiso  ? Co
   Co14       1.0     0.708923     0.708343    -0.000112    Uiso  ? Co
   Co15       1.0     0.708923     0.000580    -0.000112    Uiso  ? Co
   Co16       1.0     0.375460     0.334056     0.333014    Uiso  ? Co
   Co17       1.0     0.375460     0.041403     0.333014    Uiso  ? Co
   Co18       1.0     0.666433     0.037468     0.332273    Uiso  ? Co
   Co19       1.0     0.666433     0.628964     0.332273    Uiso  ? Co
   Co20       1.0     0.956099     0.331230     0.335017    Uiso  ? Co
   Co21       1.0     0.956099     0.624869     0.335017    Uiso  ? Co
   Co22       1.0     0.040631     0.667348     0.667028    Uiso  ? Co
   Co23       1.0     0.040631     0.373284     0.667028    Uiso  ? Co
   Co24       1.0     0.333711     0.961241     0.666174    Uiso  ? Co
   Co25       1.0     0.333711     0.372471     0.666174    Uiso  ? Co
   Co26       1.0     0.624724     0.665595     0.667719    Uiso  ? Co
   Co27       1.0     0.624724     0.959130     0.667719    Uiso  ? Co
   Co28       1.0     0.501825     0.004666     0.154369    Uiso  ? Co
   Co29       1.0     0.501825     0.497159     0.154369    Uiso  ? Co
   Co30       1.0     0.671354     0.835677     0.179454    Uiso  ? Co
   Co31       1.0     0.164449     0.330270     0.177515    Uiso  ? Co
   Co32       1.0     0.164449     0.834178     0.177515    Uiso  ? Co
   Co33       1.0     0.169607     0.338219     0.489485    Uiso  ? Co
   Co34       1.0     0.169607     0.831387     0.489485    Uiso  ? Co
   Co35       1.0     0.339348     0.169675     0.511650    Uiso  ? Co
   Co36       1.0     0.831299     0.663410     0.511371    Uiso  ? Co
   Co37       1.0     0.831299     0.167889     0.511371    Uiso  ? Co
   Co38       1.0     0.329710     0.164855     0.822168    Uiso  ? Co
   Co39       1.0     0.836664     0.671707     0.821986    Uiso  ? Co
   Co40       1.0     0.836664     0.164958     0.821986    Uiso  ? Co
   Co41       1.0     0.005687     0.502843     0.845389    Uiso  ? Co
   Co42       1.0     0.498261     0.996114     0.844204    Uiso  ? Co
   Co43       1.0     0.498261     0.502147     0.844204    Uiso  ? Co
   Cr1        1.0     0.663748     0.331874     0.248611    Uiso  ? Cr
   Cr2        1.0     0.331330     0.665666     0.584609    Uiso  ? Cr
   Cr3        1.0     0.000536     0.000268     0.916980    Uiso  ? Cr
   Cr4        1.0     0.668068     0.334033     0.416221    Uiso  ? Cr
   Cr5        1.0     0.334279     0.667140     0.749901    Uiso  ? Cr
   Cr6        1.0     0.000752     0.000376     0.081758    Uiso  ? Cr
   Cr7        1.0     0.989901     0.494950     0.158761    Uiso  ? Cr
   Cr8        1.0     0.659751     0.829875     0.491631    Uiso  ? Cr
