
#======================================================================
# CRYSTAL DATA
#----------------------------------------------------------------------
data_VESTA_phase_1

_chemical_name_common                  'Sm6 Co51                              '
_cell_length_a                         8.342023
_cell_length_b                         8.342023
_cell_length_c                         12.159246
_cell_angle_alpha                      90.000000
_cell_angle_beta                       90.000000
_cell_angle_gamma                      120.000000
_cell_volume                           732.790866
_space_group_name_H-M_alt              'P 1'
_space_group_IT_number                 1

loop_
_space_group_symop_operation_xyz
   'x, y, z'

loop_
   _atom_site_label
   _atom_site_occupancy
   _atom_site_fract_x
   _atom_site_fract_y
   _atom_site_fract_z
   _atom_site_adp_type
   _atom_site_U_iso_or_equiv
   _atom_site_type_symbol
   Sm1        1.0     0.333333     0.666667     0.008869    Uiso  ? Sm
   Sm2        1.0     0.666667     0.333333     0.983840    Uiso  ? Sm
   Sm3        1.0     0.333333     0.666667     0.328854    Uiso  ? Sm
   Sm4        1.0     -0.000000     -0.000000     0.341554    Uiso  ? Sm
   Sm5        1.0     -0.000000     -0.000000     0.655261    Uiso  ? Sm
   Sm6        1.0     0.666667     0.333333     0.677779    Uiso  ? Sm
   Co1        1.0     0.832837     0.167164     0.163884    Uiso  ? Co
   Co2        1.0     0.334326     0.167164     0.163884    Uiso  ? Co
   Co3        1.0     0.832837     0.665674     0.163884    Uiso  ? Co
   Co4        1.0     0.500640     0.499360     0.500056    Uiso  ? Co
   Co5        1.0     0.998721     0.499360     0.500056    Uiso  ? Co
   Co6        1.0     0.500640     0.001279     0.500056    Uiso  ? Co
   Co7        1.0     0.166935     0.333868     0.832583    Uiso  ? Co
   Co8        1.0     0.166935     0.833065     0.832583    Uiso  ? Co
   Co9        1.0     0.666132     0.833065     0.832583    Uiso  ? Co
   Co10       1.0     0.000646     0.707267     0.999424    Uiso  ? Co
   Co11       1.0     0.000646     0.293379     0.999424    Uiso  ? Co
   Co12       1.0     0.292733     0.999354     0.999424    Uiso  ? Co
   Co13       1.0     0.292733     0.293379     0.999424    Uiso  ? Co
   Co14       1.0     0.706621     0.707267     0.999424    Uiso  ? Co
   Co15       1.0     0.706621     0.999354     0.999424    Uiso  ? Co
   Co16       1.0     0.375564     0.332543     0.333822    Uiso  ? Co
   Co17       1.0     0.375564     0.043019     0.333822    Uiso  ? Co
   Co18       1.0     0.667457     0.043019     0.333822    Uiso  ? Co
   Co19       1.0     0.667457     0.624436     0.333822    Uiso  ? Co
   Co20       1.0     0.956981     0.332543     0.333822    Uiso  ? Co
   Co21       1.0     0.956981     0.624436     0.333822    Uiso  ? Co
   Co22       1.0     0.039430     0.666303     0.666652    Uiso  ? Co
   Co23       1.0     0.039430     0.373128     0.666652    Uiso  ? Co
   Co24       1.0     0.333697     0.960570     0.666652    Uiso  ? Co
   Co25       1.0     0.333697     0.373128     0.666652    Uiso  ? Co
   Co26       1.0     0.626872     0.666303     0.666652    Uiso  ? Co
   Co27       1.0     0.626872     0.960570     0.666652    Uiso  ? Co
   Co28       1.0     0.665993     0.832996     0.177797    Uiso  ? Co
   Co29       1.0     0.167004     0.334007     0.177797    Uiso  ? Co
   Co30       1.0     0.167004     0.832996     0.177797    Uiso  ? Co
   Co31       1.0     0.661849     0.830924     0.489470    Uiso  ? Co
   Co32       1.0     0.169076     0.338151     0.489470    Uiso  ? Co
   Co33       1.0     0.169076     0.830924     0.489470    Uiso  ? Co
   Co34       1.0     0.338553     0.169277     0.512060    Uiso  ? Co
   Co35       1.0     0.830723     0.661447     0.512060    Uiso  ? Co
   Co36       1.0     0.830723     0.169277     0.512060    Uiso  ? Co
   Co37       1.0     0.327457     0.163729     0.820401    Uiso  ? Co
   Co38       1.0     0.836271     0.672543     0.820401    Uiso  ? Co
   Co39       1.0     0.836271     0.163729     0.820401    Uiso  ? Co
   Co40       1.0     0.005161     0.502581     0.845134    Uiso  ? Co
   Co41       1.0     0.497419     0.994839     0.845134    Uiso  ? Co
   Co42       1.0     0.497419     0.502581     0.845134    Uiso  ? Co
   Cr1        1.0     0.666667     0.333333     0.245742    Uiso  ? Cr
   Cr2        1.0     0.333333     0.666667     0.585993    Uiso  ? Cr
   Cr3        1.0     -0.000000     -0.000000     0.915254    Uiso  ? Cr
   Cr4        1.0     0.666667     0.333333     0.422238    Uiso  ? Cr
   Cr5        1.0     0.333333     0.666667     0.748943    Uiso  ? Cr
   Cr6        1.0     -0.000000     -0.000000     0.081938    Uiso  ? Cr
   Cr7        1.0     0.989720     0.494860     0.160063    Uiso  ? Cr
   Cr8        1.0     0.505140     0.010280     0.160063    Uiso  ? Cr
   Cr9        1.0     0.505140     0.494860     0.160063    Uiso  ? Cr
