
#======================================================================
# CRYSTAL DATA
#----------------------------------------------------------------------
data_VESTA_phase_1

_chemical_name_common                  'Sm6 Co51                              '
_cell_length_a                         8.354639
_cell_length_b                         8.366411
_cell_length_c                         12.207785
_cell_angle_alpha                      89.929092
_cell_angle_beta                       89.997276
_cell_angle_gamma                      119.953392
_cell_volume                           739.328937
_space_group_name_H-M_alt              'P 1'
_space_group_IT_number                 1

loop_
_space_group_symop_operation_xyz
   'x, y, z'

loop_
   _atom_site_label
   _atom_site_occupancy
   _atom_site_fract_x
   _atom_site_fract_y
   _atom_site_fract_z
   _atom_site_adp_type
   _atom_site_U_iso_or_equiv
   _atom_site_type_symbol
   Sm1        1.0     0.333536     0.668215     0.009873    Uiso  ? Sm
   Sm2        1.0     0.666556     0.333591    -0.011559    Uiso  ? Sm
   Sm3        1.0     0.335465     0.683577     0.321487    Uiso  ? Sm
   Sm4        1.0    -0.014870    -0.016958     0.345224    Uiso  ? Sm
   Sm5        1.0    -0.001420    -0.001563     0.656843    Uiso  ? Sm
   Sm6        1.0     0.666358     0.333098     0.678119    Uiso  ? Sm
   Co1        1.0     0.000162    -0.000253     0.094826    Uiso  ? Co
   Co2        1.0     0.672376     0.332680     0.237103    Uiso  ? Co
   Co3        1.0     0.673007     0.334001     0.429546    Uiso  ? Co
   Co4        1.0     0.333844     0.666969     0.571774    Uiso  ? Co
   Co5        1.0     0.332869     0.666088     0.763042    Uiso  ? Co
   Co6        1.0     0.000121     0.000563     0.903674    Uiso  ? Co
   Co7        1.0     0.833802     0.167007     0.166838    Uiso  ? Co
   Co8        1.0     0.334479     0.163695     0.160205    Uiso  ? Co
   Co9        1.0     0.831879     0.663526     0.166097    Uiso  ? Co
   Co10       1.0     0.504054     0.502966     0.506481    Uiso  ? Co
   Co11       1.0     0.000190     0.499636     0.499797    Uiso  ? Co
   Co12       1.0     0.501679     0.003184     0.500508    Uiso  ? Co
   Co13       1.0     0.165177     0.333396     0.833405    Uiso  ? Co
   Co14       1.0     0.164897     0.832877     0.832249    Uiso  ? Co
   Co15       1.0     0.665490     0.833868     0.834460    Uiso  ? Co
   Co16       1.0     0.000055     0.713552    -0.000464    Uiso  ? Co
   Co17       1.0    -0.002621     0.286080    -0.002226    Uiso  ? Co
   Co18       1.0     0.287186    -0.001476    -0.001935    Uiso  ? Co
   Co19       1.0     0.285173     0.284286    -0.003258    Uiso  ? Co
   Co20       1.0     0.716217     0.716234    -0.000294    Uiso  ? Co
   Co21       1.0     0.713349     0.001012    -0.000284    Uiso  ? Co
   Co22       1.0     0.377458     0.037558     0.332549    Uiso  ? Co
   Co23       1.0     0.670794     0.052718     0.333977    Uiso  ? Co
   Co24       1.0     0.673278     0.629019     0.334073    Uiso  ? Co
   Co25       1.0     0.971124     0.333347     0.333273    Uiso  ? Co
   Co26       1.0     0.951562     0.614075     0.332663    Uiso  ? Co
   Co27       1.0     0.045811     0.665644     0.666953    Uiso  ? Co
   Co28       1.0     0.044714     0.380645     0.668971    Uiso  ? Co
   Co29       1.0     0.333287     0.950438     0.666938    Uiso  ? Co
   Co30       1.0     0.334197     0.382348     0.669974    Uiso  ? Co
   Co31       1.0     0.621947     0.668116     0.668650    Uiso  ? Co
   Co32       1.0     0.619692     0.952994     0.667142    Uiso  ? Co
   Co33       1.0     0.996115     0.498044     0.153766    Uiso  ? Co
   Co34       1.0     0.505041     0.007230     0.153476    Uiso  ? Co
   Co35       1.0     0.504649     0.501536     0.146704    Uiso  ? Co
   Co36       1.0     0.671194     0.835029     0.177784    Uiso  ? Co
   Co37       1.0     0.161651     0.330367     0.167015    Uiso  ? Co
   Co38       1.0     0.163126     0.836222     0.177745    Uiso  ? Co
   Co39       1.0     0.660112     0.830430     0.488876    Uiso  ? Co
   Co40       1.0     0.164680     0.336275     0.499691    Uiso  ? Co
   Co41       1.0     0.169524     0.831557     0.488904    Uiso  ? Co
   Co42       1.0     0.336308     0.165091     0.519981    Uiso  ? Co
   Co43       1.0     0.831093     0.659429     0.513149    Uiso  ? Co
   Co44       1.0     0.831422     0.168589     0.512884    Uiso  ? Co
   Co45       1.0     0.327663     0.164078     0.819597    Uiso  ? Co
   Co46       1.0     0.834598     0.671254     0.821140    Uiso  ? Co
   Co47       1.0     0.834289     0.163688     0.819601    Uiso  ? Co
   Co48       1.0     0.004007     0.503100     0.847116    Uiso  ? Co
   Co49       1.0     0.496634     0.995355     0.845481    Uiso  ? Co
   Co50       1.0     0.496961     0.502650     0.847063    Uiso  ? Co
   Sc1        1.0     0.368061     0.333320     0.333335    Uiso  ? Sc
