
#======================================================================
# CRYSTAL DATA
#----------------------------------------------------------------------
data_VESTA_phase_1

_chemical_name_common                  'Sm6 Co51                              '
_cell_length_a                         8.381099
_cell_length_b                         8.381099
_cell_length_c                         12.163201
_cell_angle_alpha                      90.033562
_cell_angle_beta                       89.966438
_cell_angle_gamma                      119.952812
_cell_volume                           740.264038
_space_group_name_H-M_alt              'P 1'
_space_group_IT_number                 1

loop_
_space_group_symop_operation_xyz
   'x, y, z'

loop_
   _atom_site_label
   _atom_site_occupancy
   _atom_site_fract_x
   _atom_site_fract_y
   _atom_site_fract_z
   _atom_site_adp_type
   _atom_site_U_iso_or_equiv
   _atom_site_type_symbol
   Sm1        1.0     0.326399     0.673601     0.003813    Uiso  ? Sm
   Sm2        1.0     0.671307     0.328693    -0.017473    Uiso  ? Sm
   Sm3        1.0     0.330388     0.669612     0.326937    Uiso  ? Sm
   Sm4        1.0     0.000667    -0.000667     0.346545    Uiso  ? Sm
   Sm5        1.0    -0.000105     0.000105     0.655545    Uiso  ? Sm
   Sm6        1.0     0.666720     0.333280     0.677064    Uiso  ? Sm
   Co1        1.0     0.000392    -0.000392     0.095174    Uiso  ? Co
   Co2        1.0     0.671989     0.328011     0.238943    Uiso  ? Co
   Co3        1.0     0.666006     0.333994     0.429927    Uiso  ? Co
   Co4        1.0     0.333541     0.666459     0.571219    Uiso  ? Co
   Co5        1.0     0.333896     0.666104     0.761990    Uiso  ? Co
   Co6        1.0    -0.000301     0.000301     0.901625    Uiso  ? Co
   Co7        1.0     0.831480     0.168520     0.165972    Uiso  ? Co
   Co8        1.0     0.323569     0.156562     0.168131    Uiso  ? Co
   Co9        1.0     0.843438     0.676431     0.168131    Uiso  ? Co
   Co10       1.0     0.499843     0.500157     0.501709    Uiso  ? Co
   Co11       1.0    -0.000355     0.499323     0.500418    Uiso  ? Co
   Co12       1.0     0.500677     0.000355     0.500418    Uiso  ? Co
   Co13       1.0     0.165477     0.334434     0.832605    Uiso  ? Co
   Co14       1.0     0.166077     0.833923     0.831671    Uiso  ? Co
   Co15       1.0     0.665566     0.834523     0.832605    Uiso  ? Co
   Co16       1.0     0.001645     0.713483    -0.000790    Uiso  ? Co
   Co17       1.0    -0.000670     0.287114     0.000230    Uiso  ? Co
   Co18       1.0     0.286517    -0.001645    -0.000790    Uiso  ? Co
   Co19       1.0     0.271143     0.270062    -0.004138    Uiso  ? Co
   Co20       1.0     0.729938     0.728857    -0.004138    Uiso  ? Co
   Co21       1.0     0.712886     0.000670     0.000230    Uiso  ? Co
   Co22       1.0     0.378672     0.329544     0.338014    Uiso  ? Co
   Co23       1.0     0.382846     0.048394     0.333805    Uiso  ? Co
   Co24       1.0     0.667228     0.046250     0.334278    Uiso  ? Co
   Co25       1.0     0.670456     0.621328     0.338014    Uiso  ? Co
   Co26       1.0     0.953750     0.332772     0.334278    Uiso  ? Co
   Co27       1.0     0.951606     0.617154     0.333805    Uiso  ? Co
   Co28       1.0     0.048282     0.666771     0.666093    Uiso  ? Co
   Co29       1.0     0.047244     0.380700     0.666275    Uiso  ? Co
   Co30       1.0     0.333229     0.951718     0.666093    Uiso  ? Co
   Co31       1.0     0.334282     0.380996     0.668482    Uiso  ? Co
   Co32       1.0     0.619004     0.665718     0.668482    Uiso  ? Co
   Co33       1.0     0.619300     0.952756     0.666275    Uiso  ? Co
   Co34       1.0     0.995053     0.497446     0.154102    Uiso  ? Co
   Co35       1.0     0.502554     0.004948     0.154102    Uiso  ? Co
   Co36       1.0     0.679755     0.846987     0.181686    Uiso  ? Co
   Co37       1.0     0.153013     0.320245     0.181686    Uiso  ? Co
   Co38       1.0     0.165481     0.834519     0.180211    Uiso  ? Co
   Co39       1.0     0.662079     0.830467     0.489107    Uiso  ? Co
   Co40       1.0     0.169533     0.337921     0.489107    Uiso  ? Co
   Co41       1.0     0.169622     0.830378     0.487422    Uiso  ? Co
   Co42       1.0     0.338704     0.168735     0.513908    Uiso  ? Co
   Co43       1.0     0.831266     0.661296     0.513908    Uiso  ? Co
   Co44       1.0     0.831445     0.168555     0.512656    Uiso  ? Co
   Co45       1.0     0.328352     0.165142     0.818746    Uiso  ? Co
   Co46       1.0     0.834858     0.671648     0.818746    Uiso  ? Co
   Co47       1.0     0.835330     0.164670     0.819631    Uiso  ? Co
   Co48       1.0     0.003933     0.502972     0.843913    Uiso  ? Co
   Co49       1.0     0.497028     0.996067     0.843913    Uiso  ? Co
   Co50       1.0     0.496679     0.503321     0.852823    Uiso  ? Co
   Sc1        1.0     0.501288     0.498712     0.146863    Uiso  ? Sc
