
#======================================================================
# CRYSTAL DATA
#----------------------------------------------------------------------
data_VESTA_phase_1

_chemical_name_common                  'Sm9 Co27                              '
_cell_length_a                         5.054272
_cell_length_b                         5.054272
_cell_length_c                         24.741529
_cell_angle_alpha                      90.000000
_cell_angle_beta                       90.000000
_cell_angle_gamma                      120.000000
_cell_volume                           547.361621
_space_group_name_H-M_alt              'P 1'
_space_group_IT_number                 1

loop_
_space_group_symop_operation_xyz
   'x, y, z'

loop_
   _atom_site_label
   _atom_site_occupancy
   _atom_site_fract_x
   _atom_site_fract_y
   _atom_site_fract_z
   _atom_site_adp_type
   _atom_site_U_iso_or_equiv
   _atom_site_type_symbol
   Sm1        1.0     -0.000000     -0.000000     0.004555    Uiso  ? Sm
   Sm2        1.0     0.666667     0.333333     0.333333    Uiso  ? Sm
   Sm3        1.0     0.333333     0.666667     0.662112    Uiso  ? Sm
   Sm4        1.0     0.666667     0.333333     0.195200    Uiso  ? Sm
   Sm5        1.0     -0.000000     -0.000000     0.142314    Uiso  ? Sm
   Sm6        1.0     0.333333     0.666667     0.524352    Uiso  ? Sm
   Sm7        1.0     0.666667     0.333333     0.471467    Uiso  ? Sm
   Sm8        1.0     -0.000000     -0.000000     0.868129    Uiso  ? Sm
   Sm9        1.0     0.333333     0.666667     0.798538    Uiso  ? Sm
   Co1        1.0     0.333333     0.666667     0.168826    Uiso  ? Co
   Co2        1.0     -0.000000     -0.000000     0.497841    Uiso  ? Co
   Co3        1.0     0.333333     0.666667     0.332800    Uiso  ? Co
   Co4        1.0     0.333333     0.666667     0.005738    Uiso  ? Co
   Co5        1.0     -0.000000     -0.000000     0.660929    Uiso  ? Co
   Co6        1.0     -0.000000     -0.000000     0.333867    Uiso  ? Co
   Co7        1.0     0.666667     0.333333     0.001410    Uiso  ? Co
   Co8        1.0     0.666667     0.333333     0.665256    Uiso  ? Co
   Co9        1.0     0.665923     0.832962     0.254081    Uiso  ? Co
   Co10       1.0     0.167038     0.334077     0.254081    Uiso  ? Co
   Co11       1.0     0.167038     0.832962     0.254081    Uiso  ? Co
   Co12       1.0    -0.001394     0.499303     0.083211    Uiso  ? Co
   Co13       1.0     0.500697     0.001394     0.083211    Uiso  ? Co
   Co14       1.0     0.500697     0.499303     0.083211    Uiso  ? Co
   Co15       1.0     0.334727     0.167364     0.583455    Uiso  ? Co
   Co16       1.0     0.832636     0.665273     0.583455    Uiso  ? Co
   Co17       1.0     0.832636     0.167364     0.583455    Uiso  ? Co
   Co18       1.0     0.667410     0.833705     0.412585    Uiso  ? Co
   Co19       1.0     0.166295     0.332590     0.412585    Uiso  ? Co
   Co20       1.0     0.166295     0.833705     0.412585    Uiso  ? Co
   Co21       1.0     0.009026     0.504513     0.924178    Uiso  ? Co
   Co22       1.0     0.495487    -0.009026     0.924178    Uiso  ? Co
   Co23       1.0     0.495487     0.504513     0.924178    Uiso  ? Co
   Co24       1.0     0.324307     0.162153     0.742488    Uiso  ? Co
   Co25       1.0     0.837847     0.675693     0.742488    Uiso  ? Co
   Co26       1.0     0.837847     0.162153     0.742488    Uiso  ? Co
   Sc1        1.0     0.666667     0.333333     0.833333    Uiso  ? Sc
