
#======================================================================
# CRYSTAL DATA
#----------------------------------------------------------------------
data_VESTA_phase_1

_chemical_name_common                  'Sm9 Co27                              '
_cell_length_a                         5.062790
_cell_length_b                         5.062790
_cell_length_c                         24.499567
_cell_angle_alpha                      90.000000
_cell_angle_beta                       90.000000
_cell_angle_gamma                      120.000000
_cell_volume                           543.837128
_space_group_name_H-M_alt              'P 1'
_space_group_IT_number                 1

loop_
_space_group_symop_operation_xyz
   'x, y, z'

loop_
   _atom_site_label
   _atom_site_occupancy
   _atom_site_fract_x
   _atom_site_fract_y
   _atom_site_fract_z
   _atom_site_adp_type
   _atom_site_U_iso_or_equiv
   _atom_site_type_symbol
   Sm1        1.0     -0.000000     0.000000     0.000173    Uiso  ? Sm
   Sm2        1.0     0.666667     0.333333     0.332472    Uiso  ? Sm
   Sm3        1.0     0.333333     0.666667     0.668557    Uiso  ? Sm
   Sm4        1.0     0.666667     0.333333     0.192857    Uiso  ? Sm
   Sm5        1.0     -0.000000     0.000000     0.139640    Uiso  ? Sm
   Sm6        1.0     0.333333     0.666667     0.526748    Uiso  ? Sm
   Sm7        1.0     0.666667     0.333333     0.471966    Uiso  ? Sm
   Sm8        1.0     -0.000000     0.000000     0.860607    Uiso  ? Sm
   Sm9        1.0     0.333333     0.666667     0.807806    Uiso  ? Sm
   Co1        1.0     0.333333     0.666667     0.166632    Uiso  ? Co
   Co2        1.0     -0.000000     0.000000     0.498046    Uiso  ? Co
   Co3        1.0     0.666667     0.333333     0.832790    Uiso  ? Co
   Co4        1.0     0.333333     0.666667     0.331477    Uiso  ? Co
   Co5        1.0     0.333333     0.666667     0.000425    Uiso  ? Co
   Co6        1.0     -0.000000     0.000000     0.666241    Uiso  ? Co
   Co7        1.0     -0.000000     0.000000     0.333382    Uiso  ? Co
   Co8        1.0     0.666667     0.333333     0.000374    Uiso  ? Co
   Co9        1.0     0.666922     0.833461     0.252389    Uiso  ? Co
   Co10       1.0     0.166539     0.333078     0.252389    Uiso  ? Co
   Co11       1.0     0.166539     0.833461     0.252389    Uiso  ? Co
   Co12       1.0     0.001998     0.500999     0.080407    Uiso  ? Co
   Co13       1.0     0.499001     0.998002     0.080407    Uiso  ? Co
   Co14       1.0     0.499001     0.500999     0.080407    Uiso  ? Co
   Co15       1.0     0.324060     0.162030     0.583103    Uiso  ? Co
   Co16       1.0     0.837970     0.675940     0.583103    Uiso  ? Co
   Co17       1.0     0.837970     0.162030     0.583103    Uiso  ? Co
   Co18       1.0     0.665664     0.832832     0.412513    Uiso  ? Co
   Co19       1.0     0.167168     0.334336     0.412513    Uiso  ? Co
   Co20       1.0     0.167168     0.832832     0.412513    Uiso  ? Co
   Co21       1.0     0.997454     0.498727     0.920404    Uiso  ? Co
   Co22       1.0     0.501273     0.002546     0.920404    Uiso  ? Co
   Co23       1.0     0.501273     0.498727     0.920404    Uiso  ? Co
   Co24       1.0     0.320717     0.160358     0.751324    Uiso  ? Co
   Co25       1.0     0.839642     0.679283     0.751324    Uiso  ? Co
   Co26       1.0     0.839642     0.160358     0.751324    Uiso  ? Co
   Sc1        1.0     0.666667     0.333333     0.669391    Uiso  ? Sc
