
#======================================================================
# CRYSTAL DATA
#----------------------------------------------------------------------
data_VESTA_phase_1

_chemical_name_common                  'Sm6 Co51                              '
_cell_length_a                         8.387652
_cell_length_b                         8.387652
_cell_length_c                         12.044206
_cell_angle_alpha                      90.000000
_cell_angle_beta                       90.000000
_cell_angle_gamma                      120.000000
_cell_volume                           733.820166
_space_group_name_H-M_alt              'P 1'
_space_group_IT_number                 1

loop_
_space_group_symop_operation_xyz
   'x, y, z'

loop_
   _atom_site_label
   _atom_site_occupancy
   _atom_site_fract_x
   _atom_site_fract_y
   _atom_site_fract_z
   _atom_site_adp_type
   _atom_site_U_iso_or_equiv
   _atom_site_type_symbol
   Sm1        1.0     0.333333     0.666667     0.009913    Uiso  ? Sm
   Sm2        1.0     0.666667     0.333333    -0.002746    Uiso  ? Sm
   Sm3        1.0     0.333333     0.666667     0.320116    Uiso  ? Sm
   Sm4        1.0     -0.000000     -0.000000     0.343182    Uiso  ? Sm
   Sm5        1.0     -0.000000     -0.000000     0.653408    Uiso  ? Sm
   Sm6        1.0     0.666667     0.333333     0.666195    Uiso  ? Sm
   Co1        1.0     -0.000000     -0.000000     0.093512    Uiso  ? Co
   Co2        1.0     0.333333     0.666667     0.569742    Uiso  ? Co
   Co3        1.0     0.333333     0.666667     0.761977    Uiso  ? Co
   Co4        1.0     -0.000000     -0.000000     0.901322    Uiso  ? Co
   Co5        1.0     0.833941     0.166059     0.167712    Uiso  ? Co
   Co6        1.0     0.332118     0.166059     0.167712    Uiso  ? Co
   Co7        1.0     0.833941     0.667882     0.167712    Uiso  ? Co
   Co8        1.0     0.499498     0.500502     0.495488    Uiso  ? Co
   Co9        1.0     0.001003     0.500502     0.495488    Uiso  ? Co
   Co10       1.0     0.499498    -0.001003     0.495488    Uiso  ? Co
   Co11       1.0     0.166647     0.333292     0.831519    Uiso  ? Co
   Co12       1.0     0.166647     0.833353     0.831519    Uiso  ? Co
   Co13       1.0     0.666708     0.833353     0.831519    Uiso  ? Co
   Co14       1.0    -0.001656     0.712725    -0.002228    Uiso  ? Co
   Co15       1.0    -0.001656     0.285620    -0.002228    Uiso  ? Co
   Co16       1.0     0.287275     0.001656    -0.002228    Uiso  ? Co
   Co17       1.0     0.287275     0.285620    -0.002228    Uiso  ? Co
   Co18       1.0     0.714380     0.712725    -0.002228    Uiso  ? Co
   Co19       1.0     0.714380     0.001656    -0.002228    Uiso  ? Co
   Co20       1.0     0.358563     0.333197     0.331636    Uiso  ? Co
   Co21       1.0     0.358563     0.025365     0.331636    Uiso  ? Co
   Co22       1.0     0.666803     0.025365     0.331636    Uiso  ? Co
   Co23       1.0     0.666803     0.641437     0.331636    Uiso  ? Co
   Co24       1.0     0.974635     0.333197     0.331636    Uiso  ? Co
   Co25       1.0     0.974635     0.641437     0.331636    Uiso  ? Co
   Co26       1.0     0.046034     0.664936     0.665416    Uiso  ? Co
   Co27       1.0     0.046034     0.381099     0.665416    Uiso  ? Co
   Co28       1.0     0.335064     0.953966     0.665416    Uiso  ? Co
   Co29       1.0     0.335064     0.381099     0.665416    Uiso  ? Co
   Co30       1.0     0.618901     0.664936     0.665416    Uiso  ? Co
   Co31       1.0     0.618901     0.953966     0.665416    Uiso  ? Co
   Co32       1.0    -0.002891     0.498554     0.156419    Uiso  ? Co
   Co33       1.0     0.501446     0.002892     0.156419    Uiso  ? Co
   Co34       1.0     0.501446     0.498554     0.156419    Uiso  ? Co
   Co35       1.0     0.671600     0.835800     0.172819    Uiso  ? Co
   Co36       1.0     0.164200     0.328400     0.172819    Uiso  ? Co
   Co37       1.0     0.164200     0.835800     0.172819    Uiso  ? Co
   Co38       1.0     0.661573     0.830786     0.490412    Uiso  ? Co
   Co39       1.0     0.169214     0.338427     0.490412    Uiso  ? Co
   Co40       1.0     0.169214     0.830786     0.490412    Uiso  ? Co
   Co41       1.0     0.336160     0.168080     0.506971    Uiso  ? Co
   Co42       1.0     0.831920     0.663840     0.506971    Uiso  ? Co
   Co43       1.0     0.831920     0.168080     0.506971    Uiso  ? Co
   Co44       1.0     0.330251     0.165126     0.817329    Uiso  ? Co
   Co45       1.0     0.834874     0.669749     0.817329    Uiso  ? Co
   Co46       1.0     0.834874     0.165126     0.817329    Uiso  ? Co
   Co47       1.0     0.003124     0.501562     0.845916    Uiso  ? Co
   Co48       1.0     0.498438     0.996876     0.845916    Uiso  ? Co
   Co49       1.0     0.498438     0.501562     0.845916    Uiso  ? Co
   Sc1        1.0     0.666667     0.333333     0.331264    Uiso  ? Sc
