
#======================================================================
# CRYSTAL DATA
#----------------------------------------------------------------------
data_VESTA_phase_1

_chemical_name_common                  'Sm6 Co51                              '
_cell_length_a                         8.368340
_cell_length_b                         8.368340
_cell_length_c                         12.210042
_cell_angle_alpha                      89.777328
_cell_angle_beta                       90.222672
_cell_angle_gamma                      119.968277
_cell_volume                           740.731374
_space_group_name_H-M_alt              'P 1'
_space_group_IT_number                 1

loop_
_space_group_symop_operation_xyz
   'x, y, z'

loop_
   _atom_site_label
   _atom_site_occupancy
   _atom_site_fract_x
   _atom_site_fract_y
   _atom_site_fract_z
   _atom_site_adp_type
   _atom_site_U_iso_or_equiv
   _atom_site_type_symbol
   Sm1        1.0     0.334569     0.665431     0.008814    Uiso  ? Sm
   Sm2        1.0     0.664153     0.335847    -0.014663    Uiso  ? Sm
   Sm3        1.0     0.332058     0.667942     0.324756    Uiso  ? Sm
   Sm4        1.0     0.002520    -0.002520     0.347968    Uiso  ? Sm
   Sm5        1.0     0.000334    -0.000334     0.656183    Uiso  ? Sm
   Sm6        1.0     0.666424     0.333576     0.677067    Uiso  ? Sm
   Co1        1.0     0.007626    -0.007626     0.092921    Uiso  ? Co
   Co2        1.0     0.659028     0.340972     0.240188    Uiso  ? Co
   Co3        1.0     0.667257     0.332743     0.430149    Uiso  ? Co
   Co4        1.0     0.333338     0.666662     0.571523    Uiso  ? Co
   Co5        1.0     0.333363     0.666637     0.762067    Uiso  ? Co
   Co6        1.0    -0.000594     0.000594     0.902974    Uiso  ? Co
   Co7        1.0     0.333380     0.166697     0.166597    Uiso  ? Co
   Co8        1.0     0.833303     0.666620     0.166597    Uiso  ? Co
   Co9        1.0    -0.000770     0.502436     0.502373    Uiso  ? Co
   Co10       1.0     0.497564     0.000770     0.502373    Uiso  ? Co
   Co11       1.0     0.499375     0.500625     0.499175    Uiso  ? Co
   Co12       1.0     0.169076     0.332589     0.830909    Uiso  ? Co
   Co13       1.0     0.167289     0.832711     0.834281    Uiso  ? Co
   Co14       1.0     0.667411     0.830924     0.830909    Uiso  ? Co
   Co15       1.0     0.001076     0.711320     0.000032    Uiso  ? Co
   Co16       1.0     0.004121     0.289448    -0.007982    Uiso  ? Co
   Co17       1.0     0.288680    -0.001076     0.000032    Uiso  ? Co
   Co18       1.0     0.284747     0.283446    -0.000628    Uiso  ? Co
   Co19       1.0     0.716554     0.715253    -0.000628    Uiso  ? Co
   Co20       1.0     0.710552    -0.004121    -0.007982    Uiso  ? Co
   Co21       1.0     0.378011     0.334461     0.333352    Uiso  ? Co
   Co22       1.0     0.381766     0.049924     0.333891    Uiso  ? Co
   Co23       1.0     0.662492     0.044005     0.341198    Uiso  ? Co
   Co24       1.0     0.665539     0.621989     0.333352    Uiso  ? Co
   Co25       1.0     0.955995     0.337508     0.341198    Uiso  ? Co
   Co26       1.0     0.950076     0.618234     0.333891    Uiso  ? Co
   Co27       1.0     0.047447     0.667744     0.667781    Uiso  ? Co
   Co28       1.0     0.048680     0.381966     0.666661    Uiso  ? Co
   Co29       1.0     0.332256     0.952553     0.667781    Uiso  ? Co
   Co30       1.0     0.334509     0.380647     0.665628    Uiso  ? Co
   Co31       1.0     0.619353     0.665491     0.665628    Uiso  ? Co
   Co32       1.0     0.618034     0.951320     0.666661    Uiso  ? Co
   Co33       1.0     0.007213     0.510960     0.156878    Uiso  ? Co
   Co34       1.0     0.489040    -0.007213     0.156878    Uiso  ? Co
   Co35       1.0     0.503189     0.496811     0.151722    Uiso  ? Co
   Co36       1.0     0.659379     0.822298     0.176531    Uiso  ? Co
   Co37       1.0     0.177702     0.340621     0.176531    Uiso  ? Co
   Co38       1.0     0.163489     0.836511     0.181590    Uiso  ? Co
   Co39       1.0     0.661295     0.831947     0.488872    Uiso  ? Co
   Co40       1.0     0.168053     0.338705     0.488872    Uiso  ? Co
   Co41       1.0     0.167840     0.832160     0.489555    Uiso  ? Co
   Co42       1.0     0.337574     0.170614     0.512862    Uiso  ? Co
   Co43       1.0     0.829386     0.662426     0.512862    Uiso  ? Co
   Co44       1.0     0.830393     0.169607     0.515753    Uiso  ? Co
   Co45       1.0     0.329138     0.162773     0.820493    Uiso  ? Co
   Co46       1.0     0.837227     0.670862     0.820493    Uiso  ? Co
   Co47       1.0     0.836299     0.163701     0.817501    Uiso  ? Co
   Co48       1.0     0.005418     0.501456     0.844514    Uiso  ? Co
   Co49       1.0     0.498544     0.994582     0.844514    Uiso  ? Co
   Co50       1.0     0.498833     0.501167     0.843933    Uiso  ? Co
   Sc1        1.0     0.833399     0.166601     0.166617    Uiso  ? Sc
