
#======================================================================
# CRYSTAL DATA
#----------------------------------------------------------------------
data_VESTA_phase_1

_chemical_name_common                  'Sm6 Co51                              '
_cell_length_a                         8.313224
_cell_length_b                         8.313216
_cell_length_c                         12.106650
_cell_angle_alpha                      90.000237
_cell_angle_beta                       89.999817
_cell_angle_gamma                      120.000008
_cell_volume                           724.591355
_space_group_name_H-M_alt              'P 1'
_space_group_IT_number                 1

loop_
_space_group_symop_operation_xyz
   'x, y, z'

loop_
   _atom_site_label
   _atom_site_occupancy
   _atom_site_fract_x
   _atom_site_fract_y
   _atom_site_fract_z
   _atom_site_adp_type
   _atom_site_U_iso_or_equiv
   _atom_site_type_symbol
   Sm1        1.0     0.333338     0.666666     0.012607    Uiso  ? Sm
   Sm2        1.0     0.666666     0.333339    -0.010603    Uiso  ? Sm
   Sm3        1.0    -0.000002    -0.000002     0.344574    Uiso  ? Sm
   Sm4        1.0    -0.000004    -0.000006     0.655109    Uiso  ? Sm
   Sm5        1.0     0.666665     0.333340     0.677422    Uiso  ? Sm
   Co1        1.0     0.000001     0.000002     0.097355    Uiso  ? Co
   Co2        1.0     0.666668     0.333333     0.237801    Uiso  ? Co
   Co3        1.0     0.666666     0.333331     0.428722    Uiso  ? Co
   Co4        1.0     0.333334     0.666665     0.567123    Uiso  ? Co
   Co5        1.0     0.333334     0.666666     0.760883    Uiso  ? Co
   Co6        1.0    -0.000001    -0.000001     0.904859    Uiso  ? Co
   Co7        1.0     0.833438     0.166563     0.167186    Uiso  ? Co
   Co8        1.0     0.333135     0.166572     0.167184    Uiso  ? Co
   Co9        1.0     0.833425     0.666865     0.167185    Uiso  ? Co
   Co10       1.0     0.499268     0.500736     0.498929    Uiso  ? Co
   Co11       1.0     0.001469     0.500737     0.498929    Uiso  ? Co
   Co12       1.0     0.499260    -0.001481     0.498927    Uiso  ? Co
   Co13       1.0     0.166698     0.333384     0.833314    Uiso  ? Co
   Co14       1.0     0.166686     0.833309     0.833316    Uiso  ? Co
   Co15       1.0     0.666622     0.833303     0.833315    Uiso  ? Co
   Co16       1.0     0.000381     0.713347     0.000756    Uiso  ? Co
   Co17       1.0     0.000385     0.287041     0.000753    Uiso  ? Co
   Co18       1.0     0.286654    -0.000380     0.000755    Uiso  ? Co
   Co19       1.0     0.286660     0.287043     0.000753    Uiso  ? Co
   Co20       1.0     0.712961     0.713344     0.000754    Uiso  ? Co
   Co21       1.0     0.712964    -0.000382     0.000755    Uiso  ? Co
   Co22       1.0     0.377907     0.335733     0.333075    Uiso  ? Co
   Co23       1.0     0.377910     0.042178     0.333074    Uiso  ? Co
   Co24       1.0     0.664269     0.042169     0.333075    Uiso  ? Co
   Co25       1.0     0.664268     0.622096     0.333076    Uiso  ? Co
   Co26       1.0     0.957829     0.335732     0.333075    Uiso  ? Co
   Co27       1.0     0.957821     0.622092     0.333073    Uiso  ? Co
   Co28       1.0     0.046731     0.667029     0.665942    Uiso  ? Co
   Co29       1.0     0.046739     0.379711     0.665942    Uiso  ? Co
   Co30       1.0     0.332969     0.953263     0.665941    Uiso  ? Co
   Co31       1.0     0.332973     0.379709     0.665941    Uiso  ? Co
   Co32       1.0     0.620294     0.667027     0.665942    Uiso  ? Co
   Co33       1.0     0.620289     0.953258     0.665941    Uiso  ? Co
   Co34       1.0    -0.001047     0.499475     0.155971    Uiso  ? Co
   Co35       1.0     0.500524     0.001044     0.155974    Uiso  ? Co
   Co36       1.0     0.500523     0.499477     0.155972    Uiso  ? Co
   Co37       1.0     0.665856     0.832930     0.182515    Uiso  ? Co
   Co38       1.0     0.167076     0.334149     0.182513    Uiso  ? Co
   Co39       1.0     0.167070     0.832928     0.182515    Uiso  ? Co
   Co40       1.0     0.658495     0.829244     0.483728    Uiso  ? Co
   Co41       1.0     0.170754     0.341507     0.483727    Uiso  ? Co
   Co42       1.0     0.170749     0.829248     0.483727    Uiso  ? Co
   Co43       1.0     0.338084     0.169042     0.512601    Uiso  ? Co
   Co44       1.0     0.830957     0.661920     0.512600    Uiso  ? Co
   Co45       1.0     0.830956     0.169041     0.512602    Uiso  ? Co
   Co46       1.0     0.328977     0.164491     0.820720    Uiso  ? Co
   Co47       1.0     0.835509     0.671022     0.820719    Uiso  ? Co
   Co48       1.0     0.835512     0.164487     0.820720    Uiso  ? Co
   Co49       1.0     0.004691     0.502346     0.845834    Uiso  ? Co
   Co50       1.0     0.497652     0.995304     0.845835    Uiso  ? Co
   Co51       1.0     0.497656     0.502347     0.845835    Uiso  ? Co
   Sc1        1.0     0.333335     0.666666     0.323128    Uiso  ? Sc
