
#======================================================================
# CRYSTAL DATA
#----------------------------------------------------------------------
data_VESTA_phase_1

_chemical_name_common                  'Sm2 Co10                              '
_cell_length_a                         4.923824
_cell_length_b                         4.990341
_cell_length_c                         7.931658
_cell_angle_alpha                      90.000000
_cell_angle_beta                       90.000000
_cell_angle_gamma                      120.447906
_cell_volume                           168.015556
_space_group_name_H-M_alt              'P 1'
_space_group_IT_number                 1

loop_
_space_group_symop_operation_xyz
   'x, y, z'

loop_
   _atom_site_label
   _atom_site_occupancy
   _atom_site_fract_x
   _atom_site_fract_y
   _atom_site_fract_z
   _atom_site_adp_type
   _atom_site_U_iso_or_equiv
   _atom_site_type_symbol
   Sm1        1.0     -0.000000     -0.000000     0.001081    Uiso  ? Sm
   Sm2        1.0     -0.000000     -0.000000     0.498919    Uiso  ? Sm
   Co1        1.0     0.320010     0.660005    -0.002077    Uiso  ? Co
   Co2        1.0     0.679990     0.339995    -0.002077    Uiso  ? Co
   Co3        1.0     0.320010     0.660005     0.502077    Uiso  ? Co
   Co4        1.0     0.679990     0.339995     0.502077    Uiso  ? Co
   Co5        1.0     -0.000000     0.500000     0.750000    Uiso  ? Co
   Ni1        1.0     0.500000     0.500000     0.250000    Uiso  ? Ni
   Ni2        1.0     0.500000     0.500000     0.750000    Uiso  ? Ni
   Ni3        1.0     0.500000     -0.000000     0.250000    Uiso  ? Ni
   Ni4        1.0     0.500000     -0.000000     0.750000    Uiso  ? Ni
   Ni5        1.0     -0.000000     0.500000     0.250000    Uiso  ? Ni
