
#======================================================================
# CRYSTAL DATA
#----------------------------------------------------------------------
data_VESTA_phase_1

_chemical_name_common                  'Sm6 Co51                              '
_cell_length_a                         8.340853
_cell_length_b                         8.346185
_cell_length_c                         12.169598
_cell_angle_alpha                      89.955650
_cell_angle_beta                       89.999847
_cell_angle_gamma                      119.981895
_cell_volume                           733.811180
_space_group_name_H-M_alt              'P 1'
_space_group_IT_number                 1

loop_
_space_group_symop_operation_xyz
   'x, y, z'

loop_
   _atom_site_label
   _atom_site_occupancy
   _atom_site_fract_x
   _atom_site_fract_y
   _atom_site_fract_z
   _atom_site_adp_type
   _atom_site_U_iso_or_equiv
   _atom_site_type_symbol
   Sm1        1.0     0.333241     0.667072     0.010518    Uiso  ? Sm
   Sm2        1.0     0.666814     0.333534     0.988791    Uiso  ? Sm
   Sm3        1.0     0.334790     0.670925     0.322338    Uiso  ? Sm
   Sm4        1.0     0.997171     0.995673     0.344384    Uiso  ? Sm
   Sm5        1.0     0.999479     0.999541     0.656312    Uiso  ? Sm
   Sm6        1.0     0.666618     0.333173     0.677562    Uiso  ? Sm
   Co1        1.0     0.999733     0.999555     0.095172    Uiso  ? Co
   Co2        1.0     0.666898     0.332571     0.237861    Uiso  ? Co
   Co3        1.0     0.667869     0.334295     0.428531    Uiso  ? Co
   Co4        1.0     0.333528     0.667298     0.571504    Uiso  ? Co
   Co5        1.0     0.333233     0.666716     0.762892    Uiso  ? Co
   Co6        1.0     0.999913     0.999964     0.903907    Uiso  ? Co
   Co7        1.0     0.832692     0.167400     0.166498    Uiso  ? Co
   Co8        1.0     0.333432     0.165360     0.164549    Uiso  ? Co
   Co9        1.0     0.832674     0.665632     0.166540    Uiso  ? Co
   Co10       1.0     0.501356     0.501224     0.502091    Uiso  ? Co
   Co11       1.0     0.998334     0.499097     0.500151    Uiso  ? Co
   Co12       1.0     0.500451     0.001294     0.500104    Uiso  ? Co
   Co13       1.0     0.165974     0.333294     0.833393    Uiso  ? Co
   Co14       1.0     0.166275     0.833376     0.833100    Uiso  ? Co
   Co15       1.0     0.666301     0.833362     0.833686    Uiso  ? Co
   Co16       1.0    -0.000143     0.713878     0.999780    Uiso  ? Co
   Co17       1.0    -0.000522     0.286736    -0.000513    Uiso  ? Co
   Co18       1.0     0.287722    -0.000164    -0.000199    Uiso  ? Co
   Co19       1.0     0.286342     0.285449     0.998530    Uiso  ? Co
   Co20       1.0     0.712947     0.712899     0.000132    Uiso  ? Co
   Co21       1.0     0.713458     0.000274     0.999684    Uiso  ? Co
   Co22       1.0     0.378186     0.040979     0.332753    Uiso  ? Co
   Co23       1.0     0.668558     0.048547     0.333523    Uiso  ? Co
   Co24       1.0     0.670483     0.625768     0.333897    Uiso  ? Co
   Co25       1.0     0.961928     0.333284     0.333323    Uiso  ? Co
   Co26       1.0     0.953307     0.618144     0.333152    Uiso  ? Co
   Co27       1.0     0.046723     0.666432     0.666978    Uiso  ? Co
   Co28       1.0     0.046254     0.380085     0.667238    Uiso  ? Co
   Co29       1.0     0.333409     0.953642     0.666563    Uiso  ? Co
   Co30       1.0     0.334143     0.381242     0.668115    Uiso  ? Co
   Co31       1.0     0.620959     0.666873     0.666887    Uiso  ? Co
   Co32       1.0     0.619307     0.952769     0.666912    Uiso  ? Co
   Co33       1.0     0.995515     0.497967     0.154070    Uiso  ? Co
   Co34       1.0     0.502963     0.005119     0.153564    Uiso  ? Co
   Co35       1.0     0.502491     0.499192     0.153437    Uiso  ? Co
   Co36       1.0     0.671387     0.835934     0.178361    Uiso  ? Co
   Co37       1.0     0.163654     0.329309     0.173511    Uiso  ? Co
   Co38       1.0     0.164133     0.834903     0.178324    Uiso  ? Co
   Co39       1.0     0.662316     0.831653     0.488333    Uiso  ? Co
   Co40       1.0     0.167550     0.337213     0.493140    Uiso  ? Co
   Co41       1.0     0.168866     0.830636     0.488229    Uiso  ? Co
   Co42       1.0     0.336467     0.167350     0.513297    Uiso  ? Co
   Co43       1.0     0.831187     0.661635     0.513137    Uiso  ? Co
   Co44       1.0     0.830856     0.168543     0.512685    Uiso  ? Co
   Co45       1.0     0.328710     0.164377     0.820573    Uiso  ? Co
   Co46       1.0     0.835308     0.671053     0.820867    Uiso  ? Co
   Co47       1.0     0.835038     0.164229     0.820287    Uiso  ? Co
   Co48       1.0     0.004221     0.502526     0.846384    Uiso  ? Co
   Co49       1.0     0.497556     0.995492     0.845746    Uiso  ? Co
   Co50       1.0     0.497654     0.502372     0.846024    Uiso  ? Co
   Mn1        1.0     0.374290     0.333302     0.333389    Uiso  ? Mn
