
#======================================================================
# CRYSTAL DATA
#----------------------------------------------------------------------
data_VESTA_phase_1

_chemical_name_common                  'Sm6 Co51                              '
_cell_length_a                         8.351462
_cell_length_b                         8.351462
_cell_length_c                         12.147408
_cell_angle_alpha                      89.987358
_cell_angle_beta                       90.012642
_cell_angle_gamma                      119.975418
_cell_volume                           733.916749
_space_group_name_H-M_alt              'P 1'
_space_group_IT_number                 1

loop_
_space_group_symop_operation_xyz
   'x, y, z'

loop_
   _atom_site_label
   _atom_site_occupancy
   _atom_site_fract_x
   _atom_site_fract_y
   _atom_site_fract_z
   _atom_site_adp_type
   _atom_site_U_iso_or_equiv
   _atom_site_type_symbol
   Sm1        1.0     0.332235     0.667765     0.010281    Uiso  ? Sm
   Sm2        1.0     0.666842     0.333158     0.988009    Uiso  ? Sm
   Sm3        1.0     0.332909     0.667091     0.322904    Uiso  ? Sm
   Sm4        1.0     0.000243     0.999757     0.345208    Uiso  ? Sm
   Sm5        1.0    -0.000036     0.000036     0.655411    Uiso  ? Sm
   Sm6        1.0     0.666506     0.333494     0.677514    Uiso  ? Sm
   Co1        1.0     0.000205     0.999795     0.095271    Uiso  ? Co
   Co2        1.0     0.669063     0.330937     0.238036    Uiso  ? Co
   Co3        1.0     0.666397     0.333603     0.429602    Uiso  ? Co
   Co4        1.0     0.333206     0.666794     0.570833    Uiso  ? Co
   Co5        1.0     0.333331     0.666669     0.762650    Uiso  ? Co
   Co6        1.0     0.999756     0.000244     0.902983    Uiso  ? Co
   Co7        1.0     0.834120     0.165880     0.167202    Uiso  ? Co
   Co8        1.0     0.330362     0.163221     0.166862    Uiso  ? Co
   Co9        1.0     0.836779     0.669638     0.166862    Uiso  ? Co
   Co10       1.0     0.499635     0.500365     0.500516    Uiso  ? Co
   Co11       1.0     0.999381     0.499944     0.500381    Uiso  ? Co
   Co12       1.0     0.500056     0.000619     0.500381    Uiso  ? Co
   Co13       1.0     0.165834     0.333059     0.832920    Uiso  ? Co
   Co14       1.0     0.166810     0.833190     0.833023    Uiso  ? Co
   Co15       1.0     0.666941     0.834166     0.832920    Uiso  ? Co
   Co16       1.0     0.001062     0.713242     0.999635    Uiso  ? Co
   Co17       1.0     0.999126     0.287088     0.999911    Uiso  ? Co
   Co18       1.0     0.286758     0.998938     0.999635    Uiso  ? Co
   Co19       1.0     0.281144     0.280634     0.998512    Uiso  ? Co
   Co20       1.0     0.719366     0.718856     0.998512    Uiso  ? Co
   Co21       1.0     0.712912     0.000874     0.999911    Uiso  ? Co
   Co22       1.0     0.380288     0.332366     0.334466    Uiso  ? Co
   Co23       1.0     0.381172     0.046737     0.333148    Uiso  ? Co
   Co24       1.0     0.667134     0.046881     0.334073    Uiso  ? Co
   Co25       1.0     0.667634     0.619712     0.334466    Uiso  ? Co
   Co26       1.0     0.953119     0.332866     0.334073    Uiso  ? Co
   Co27       1.0     0.953263     0.618828     0.333148    Uiso  ? Co
   Co28       1.0     0.047386     0.666698     0.666632    Uiso  ? Co
   Co29       1.0     0.046811     0.380464     0.666692    Uiso  ? Co
   Co30       1.0     0.333302     0.952614     0.666632    Uiso  ? Co
   Co31       1.0     0.333533     0.380543     0.667118    Uiso  ? Co
   Co32       1.0     0.619457     0.666467     0.667118    Uiso  ? Co
   Co33       1.0     0.619536     0.953189     0.666692    Uiso  ? Co
   Co34       1.0     0.994930     0.496792     0.154265    Uiso  ? Co
   Co35       1.0     0.503208     0.005070     0.154265    Uiso  ? Co
   Co36       1.0     0.673754     0.838648     0.179432    Uiso  ? Co
   Co37       1.0     0.161352     0.326246     0.179432    Uiso  ? Co
   Co38       1.0     0.164004     0.835997     0.179897    Uiso  ? Co
   Co39       1.0     0.661931     0.831386     0.488060    Uiso  ? Co
   Co40       1.0     0.168614     0.338069     0.488060    Uiso  ? Co
   Co41       1.0     0.169117     0.830883     0.487435    Uiso  ? Co
   Co42       1.0     0.337522     0.169102     0.512151    Uiso  ? Co
   Co43       1.0     0.830898     0.662478     0.512151    Uiso  ? Co
   Co44       1.0     0.831029     0.168971     0.513196    Uiso  ? Co
   Co45       1.0     0.328638     0.164348     0.819536    Uiso  ? Co
   Co46       1.0     0.835652     0.671362     0.819536    Uiso  ? Co
   Co47       1.0     0.835175     0.164825     0.820253    Uiso  ? Co
   Co48       1.0     0.004232     0.502303     0.845703    Uiso  ? Co
   Co49       1.0     0.497697     0.995768     0.845703    Uiso  ? Co
   Co50       1.0     0.497311     0.502689     0.847719    Uiso  ? Co
   Mn1        1.0     0.501361     0.498639     0.153062    Uiso  ? Mn
