
#======================================================================
# CRYSTAL DATA
#----------------------------------------------------------------------
data_VESTA_phase_1

_chemical_name_common                  'Sm9 Co27                              '
_cell_length_a                         5.031171
_cell_length_b                         5.031171
_cell_length_c                         24.613249
_cell_angle_alpha                      90.000000
_cell_angle_beta                       90.000000
_cell_angle_gamma                      120.000000
_cell_volume                           539.557565
_space_group_name_H-M_alt              'P 1'
_space_group_IT_number                 1

loop_
_space_group_symop_operation_xyz
   'x, y, z'

loop_
   _atom_site_label
   _atom_site_occupancy
   _atom_site_fract_x
   _atom_site_fract_y
   _atom_site_fract_z
   _atom_site_adp_type
   _atom_site_U_iso_or_equiv
   _atom_site_type_symbol
   Sm1        1.0     -0.000000     -0.000000     0.000990    Uiso  ? Sm
   Sm2        1.0     0.666667     0.333333     0.333333    Uiso  ? Sm
   Sm3        1.0     0.333333     0.666667     0.665677    Uiso  ? Sm
   Sm4        1.0     0.666667     0.333333     0.193740    Uiso  ? Sm
   Sm5        1.0     -0.000000     -0.000000     0.140190    Uiso  ? Sm
   Sm6        1.0     0.333333     0.666667     0.526477    Uiso  ? Sm
   Sm7        1.0     0.666667     0.333333     0.472927    Uiso  ? Sm
   Sm8        1.0     -0.000000     -0.000000     0.861757    Uiso  ? Sm
   Sm9        1.0     0.333333     0.666667     0.804910    Uiso  ? Sm
   Co1        1.0     0.333333     0.666667     0.167006    Uiso  ? Co
   Co2        1.0     -0.000000     -0.000000     0.499661    Uiso  ? Co
   Co3        1.0     0.333333     0.666667     0.332592    Uiso  ? Co
   Co4        1.0     0.333333     0.666667     0.001073    Uiso  ? Co
   Co5        1.0     -0.000000     -0.000000     0.665594    Uiso  ? Co
   Co6        1.0     -0.000000     -0.000000     0.334074    Uiso  ? Co
   Co7        1.0     0.666667     0.333333     0.999629    Uiso  ? Co
   Co8        1.0     0.666667     0.333333     0.667038    Uiso  ? Co
   Co9        1.0     0.666388     0.833194     0.253314    Uiso  ? Co
   Co10       1.0     0.166806     0.333612     0.253314    Uiso  ? Co
   Co11       1.0     0.166806     0.833194     0.253314    Uiso  ? Co
   Co12       1.0     0.000965     0.500482     0.080603    Uiso  ? Co
   Co13       1.0     0.499518     0.999035     0.080603    Uiso  ? Co
   Co14       1.0     0.499518     0.500482     0.080603    Uiso  ? Co
   Co15       1.0     0.332368     0.166184     0.586064    Uiso  ? Co
   Co16       1.0     0.833816     0.667632     0.586064    Uiso  ? Co
   Co17       1.0     0.833816     0.166184     0.586064    Uiso  ? Co
   Co18       1.0     0.666946     0.833473     0.413352    Uiso  ? Co
   Co19       1.0     0.166527     0.333054     0.413352    Uiso  ? Co
   Co20       1.0     0.166527     0.833473     0.413352    Uiso  ? Co
   Co21       1.0     0.001793     0.500897     0.920528    Uiso  ? Co
   Co22       1.0     0.499103    -0.001793     0.920528    Uiso  ? Co
   Co23       1.0     0.499103     0.500897     0.920528    Uiso  ? Co
   Co24       1.0     0.331540     0.165770     0.746138    Uiso  ? Co
   Co25       1.0     0.834230     0.668460     0.746138    Uiso  ? Co
   Co26       1.0     0.834230     0.165770     0.746138    Uiso  ? Co
   Mn1        1.0     0.666667     0.333333     0.833333    Uiso  ? Mn
