
#======================================================================
# CRYSTAL DATA
#----------------------------------------------------------------------
data_VESTA_phase_1

_chemical_name_common                  'La1 Co5                               '
_cell_length_a                         5.195248
_cell_length_b                         5.195248
_cell_length_c                         4.044775
_cell_angle_alpha                      90.000000
_cell_angle_beta                       90.000000
_cell_angle_gamma                      123.521782
_cell_volume                           91.013160
_space_group_name_H-M_alt              'P 1'
_space_group_IT_number                 1

loop_
_space_group_symop_operation_xyz
   'x, y, z'

loop_
   _atom_site_label
   _atom_site_occupancy
   _atom_site_fract_x
   _atom_site_fract_y
   _atom_site_fract_z
   _atom_site_adp_type
   _atom_site_U_iso_or_equiv
   _atom_site_type_symbol
   La1        1.0     -0.000000     0.000000     0.000000    Uiso  ? La
   Co1        1.0     0.303598     0.696402     -0.000000    Uiso  ? Co
   Co2        1.0     0.696402     0.303598     -0.000000    Uiso  ? Co
   Co3        1.0     0.500000     0.000000     0.500000    Uiso  ? Co
   Co4        1.0     -0.000000     0.500000     0.500000    Uiso  ? Co
   Mn1        1.0     0.500000     0.500000     0.500000    Uiso  ? Mn
