
#======================================================================
# CRYSTAL DATA
#----------------------------------------------------------------------
data_VESTA_phase_1

_chemical_name_common                  'Sm6 Co51                              '
_cell_length_a                         8.352362
_cell_length_b                         8.352362
_cell_length_c                         12.138908
_cell_angle_alpha                      90.000000
_cell_angle_beta                       90.000000
_cell_angle_gamma                      120.000000
_cell_volume                           733.379641
_space_group_name_H-M_alt              'P 1'
_space_group_IT_number                 1

loop_
_space_group_symop_operation_xyz
   'x, y, z'

loop_
   _atom_site_label
   _atom_site_occupancy
   _atom_site_fract_x
   _atom_site_fract_y
   _atom_site_fract_z
   _atom_site_adp_type
   _atom_site_U_iso_or_equiv
   _atom_site_type_symbol
   Sm1        1.0     0.333333     0.666667     0.010724    Uiso  ? Sm
   Sm2        1.0     0.666667     0.333333    -0.012789    Uiso  ? Sm
   Sm3        1.0     0.333333     0.666667     0.322097    Uiso  ? Sm
   Sm4        1.0     -0.000000     0.000000     0.345050    Uiso  ? Sm
   Sm5        1.0     -0.000000     0.000000     0.655688    Uiso  ? Sm
   Sm6        1.0     0.666667     0.333333     0.677195    Uiso  ? Sm
   Co1        1.0     -0.000000     0.000000     0.095559    Uiso  ? Co
   Co2        1.0     0.666667     0.333333     0.433919    Uiso  ? Co
   Co3        1.0     0.333333     0.666667     0.570541    Uiso  ? Co
   Co4        1.0     0.333333     0.666667     0.762413    Uiso  ? Co
   Co5        1.0     -0.000000     0.000000     0.903904    Uiso  ? Co
   Co6        1.0     0.835769     0.164231     0.166947    Uiso  ? Co
   Co7        1.0     0.328461     0.164231     0.166947    Uiso  ? Co
   Co8        1.0     0.835769     0.671539     0.166947    Uiso  ? Co
   Co9        1.0     0.499978     0.500022     0.500096    Uiso  ? Co
   Co10       1.0     0.000043     0.500022     0.500096    Uiso  ? Co
   Co11       1.0     0.499978    -0.000043     0.500096    Uiso  ? Co
   Co12       1.0     0.166323     0.332644     0.833186    Uiso  ? Co
   Co13       1.0     0.166323     0.833677     0.833186    Uiso  ? Co
   Co14       1.0     0.667356     0.833677     0.833186    Uiso  ? Co
   Co15       1.0     0.000283     0.713579    -0.000181    Uiso  ? Co
   Co16       1.0     0.000283     0.286704    -0.000181    Uiso  ? Co
   Co17       1.0     0.286421    -0.000283    -0.000181    Uiso  ? Co
   Co18       1.0     0.286421     0.286704    -0.000181    Uiso  ? Co
   Co19       1.0     0.713296     0.713579    -0.000181    Uiso  ? Co
   Co20       1.0     0.713296    -0.000283    -0.000181    Uiso  ? Co
   Co21       1.0     0.379128     0.332974     0.333937    Uiso  ? Co
   Co22       1.0     0.379128     0.046154     0.333937    Uiso  ? Co
   Co23       1.0     0.667026     0.046154     0.333937    Uiso  ? Co
   Co24       1.0     0.667026     0.620872     0.333937    Uiso  ? Co
   Co25       1.0     0.953846     0.332974     0.333937    Uiso  ? Co
   Co26       1.0     0.953846     0.620872     0.333937    Uiso  ? Co
   Co27       1.0     0.047403     0.666804     0.666686    Uiso  ? Co
   Co28       1.0     0.047403     0.380600     0.666686    Uiso  ? Co
   Co29       1.0     0.333196     0.952597     0.666686    Uiso  ? Co
   Co30       1.0     0.333196     0.380600     0.666686    Uiso  ? Co
   Co31       1.0     0.619400     0.666804     0.666686    Uiso  ? Co
   Co32       1.0     0.619400     0.952597     0.666686    Uiso  ? Co
   Co33       1.0    -0.001485     0.499258     0.153508    Uiso  ? Co
   Co34       1.0     0.500742     0.001485     0.153508    Uiso  ? Co
   Co35       1.0     0.500742     0.499258     0.153508    Uiso  ? Co
   Co36       1.0     0.670362     0.835181     0.178626    Uiso  ? Co
   Co37       1.0     0.164819     0.329638     0.178626    Uiso  ? Co
   Co38       1.0     0.164819     0.835181     0.178626    Uiso  ? Co
   Co39       1.0     0.661756     0.830878     0.486648    Uiso  ? Co
   Co40       1.0     0.169122     0.338244     0.486648    Uiso  ? Co
   Co41       1.0     0.169122     0.830878     0.486648    Uiso  ? Co
   Co42       1.0     0.337233     0.168617     0.513281    Uiso  ? Co
   Co43       1.0     0.831383     0.662767     0.513281    Uiso  ? Co
   Co44       1.0     0.831383     0.168617     0.513281    Uiso  ? Co
   Co45       1.0     0.329099     0.164550     0.820524    Uiso  ? Co
   Co46       1.0     0.835450     0.670901     0.820524    Uiso  ? Co
   Co47       1.0     0.835450     0.164550     0.820524    Uiso  ? Co
   Co48       1.0     0.004846     0.502423     0.845833    Uiso  ? Co
   Co49       1.0     0.497577     0.995154     0.845833    Uiso  ? Co
   Co50       1.0     0.497577     0.502423     0.845833    Uiso  ? Co
   Mn1        1.0     0.666667     0.333333     0.237104    Uiso  ? Mn
