
#======================================================================
# CRYSTAL DATA
#----------------------------------------------------------------------
data_VESTA_phase_1

_chemical_name_common                  'Sm9 Co27                              '
_cell_length_a                         5.031334
_cell_length_b                         5.031334
_cell_length_c                         24.576195
_cell_angle_alpha                      90.000000
_cell_angle_beta                       90.000000
_cell_angle_gamma                      120.000000
_cell_volume                           538.780111
_space_group_name_H-M_alt              'P 1'
_space_group_IT_number                 1

loop_
_space_group_symop_operation_xyz
   'x, y, z'

loop_
   _atom_site_label
   _atom_site_occupancy
   _atom_site_fract_x
   _atom_site_fract_y
   _atom_site_fract_z
   _atom_site_adp_type
   _atom_site_U_iso_or_equiv
   _atom_site_type_symbol
   Sm1        1.0     0.000000     0.000000     0.999900    Uiso  ? Sm
   Sm2        1.0     0.666667     0.333333     0.333133    Uiso  ? Sm
   Sm3        1.0     0.333333     0.666667     0.667084    Uiso  ? Sm
   Sm4        1.0     0.666667     0.333333     0.193480    Uiso  ? Sm
   Sm5        1.0     0.000000     0.000000     0.139702    Uiso  ? Sm
   Sm6        1.0     0.333333     0.666667     0.526507    Uiso  ? Sm
   Sm7        1.0     0.666667     0.333333     0.472883    Uiso  ? Sm
   Sm8        1.0     0.000000     0.000000     0.860157    Uiso  ? Sm
   Sm9        1.0     0.333333     0.666667     0.807090    Uiso  ? Sm
   Co1        1.0     0.333333     0.666667     0.166637    Uiso  ? Co
   Co2        1.0     0.000000     0.000000     0.500653    Uiso  ? Co
   Co3        1.0     0.666667     0.333333     0.832198    Uiso  ? Co
   Co4        1.0     0.333333     0.666667     0.332465    Uiso  ? Co
   Co5        1.0     0.333333     0.666667     0.000501    Uiso  ? Co
   Co6        1.0     0.000000     0.000000     0.666721    Uiso  ? Co
   Co7        1.0     0.000000     0.000000     0.333822    Uiso  ? Co
   Co8        1.0     0.666667     0.333333     0.999601    Uiso  ? Co
   Co9        1.0     0.666419     0.833210     0.252999    Uiso  ? Co
   Co10       1.0     0.166791     0.333581     0.252999    Uiso  ? Co
   Co11       1.0     0.166791     0.833210     0.252999    Uiso  ? Co
   Co12       1.0     0.000831     0.500416     0.080207    Uiso  ? Co
   Co13       1.0     0.499584     0.999169     0.080207    Uiso  ? Co
   Co14       1.0     0.499584     0.500416     0.080207    Uiso  ? Co
   Co15       1.0     0.331554     0.165777     0.585470    Uiso  ? Co
   Co16       1.0     0.834223     0.668446     0.585470    Uiso  ? Co
   Co17       1.0     0.834223     0.165777     0.585470    Uiso  ? Co
   Co18       1.0     0.667141     0.833570     0.413275    Uiso  ? Co
   Co19       1.0     0.166430     0.332859     0.413275    Uiso  ? Co
   Co20       1.0     0.166430     0.833570     0.413275    Uiso  ? Co
   Co21       1.0     0.998563     0.499281     0.919770    Uiso  ? Co
   Co22       1.0     0.500719     0.001437     0.919770    Uiso  ? Co
   Co23       1.0     0.500719     0.499281     0.919770    Uiso  ? Co
   Co24       1.0     0.330655     0.165327     0.748249    Uiso  ? Co
   Co25       1.0     0.834673     0.669345     0.748249    Uiso  ? Co
   Co26       1.0     0.834673     0.165327     0.748249    Uiso  ? Co
   Mn1        1.0     0.666667     0.333333     0.667558    Uiso  ? Mn
