
#======================================================================
# CRYSTAL DATA
#----------------------------------------------------------------------
data_VESTA_phase_1

_chemical_name_common                  'Sm6 Co51                              '
_cell_length_a                         8.343911
_cell_length_b                         8.343911
_cell_length_c                         12.160541
_cell_angle_alpha                      89.950081
_cell_angle_beta                       90.049919
_cell_angle_gamma                      120.006119
_cell_volume                           733.155094
_space_group_name_H-M_alt              'P 1'
_space_group_IT_number                 1

loop_
_space_group_symop_operation_xyz
   'x, y, z'

loop_
   _atom_site_label
   _atom_site_occupancy
   _atom_site_fract_x
   _atom_site_fract_y
   _atom_site_fract_z
   _atom_site_adp_type
   _atom_site_U_iso_or_equiv
   _atom_site_type_symbol
   Sm1        1.0     0.333123     0.666877     0.010615    Uiso  ? Sm
   Sm2        1.0     0.667251     0.332749     0.988954    Uiso  ? Sm
   Sm3        1.0     0.333524     0.666476     0.322647    Uiso  ? Sm
   Sm4        1.0     0.999411     0.000589     0.344257    Uiso  ? Sm
   Sm5        1.0     0.000032     0.999968     0.655853    Uiso  ? Sm
   Sm6        1.0     0.666602     0.333398     0.677606    Uiso  ? Sm
   Co1        1.0     0.001875     0.998125     0.095166    Uiso  ? Co
   Co2        1.0     0.664824     0.335176     0.238203    Uiso  ? Co
   Co3        1.0     0.667075     0.332925     0.429661    Uiso  ? Co
   Co4        1.0     0.333496     0.666504     0.570815    Uiso  ? Co
   Co5        1.0     0.333183     0.666817     0.762329    Uiso  ? Co
   Co6        1.0     0.999668     0.000332     0.903846    Uiso  ? Co
   Co7        1.0     0.333364     0.166669     0.166626    Uiso  ? Co
   Co8        1.0     0.833331     0.666636     0.166626    Uiso  ? Co
   Co9        1.0     0.000747     0.500551     0.500220    Uiso  ? Co
   Co10       1.0     0.499449     0.999253     0.500220    Uiso  ? Co
   Co11       1.0     0.500364     0.499636     0.500274    Uiso  ? Co
   Co12       1.0     0.167058     0.333926     0.833199    Uiso  ? Co
   Co13       1.0     0.166386     0.833614     0.833157    Uiso  ? Co
   Co14       1.0     0.666074     0.832942     0.833199    Uiso  ? Co
   Co15       1.0     0.000192     0.713387     0.999605    Uiso  ? Co
   Co16       1.0     0.000871     0.286257     0.998266    Uiso  ? Co
   Co17       1.0     0.286613     0.999808     0.999605    Uiso  ? Co
   Co18       1.0     0.287411     0.286818     0.999870    Uiso  ? Co
   Co19       1.0     0.713182     0.712589     0.999870    Uiso  ? Co
   Co20       1.0     0.713743     0.999129     0.998266    Uiso  ? Co
   Co21       1.0     0.380209     0.333523     0.333747    Uiso  ? Co
   Co22       1.0     0.379439     0.046717     0.333465    Uiso  ? Co
   Co23       1.0     0.665775     0.047167     0.335117    Uiso  ? Co
   Co24       1.0     0.666477     0.619791     0.333747    Uiso  ? Co
   Co25       1.0     0.952833     0.334225     0.335117    Uiso  ? Co
   Co26       1.0     0.953283     0.620561     0.333465    Uiso  ? Co
   Co27       1.0     0.047093     0.667111     0.666612    Uiso  ? Co
   Co28       1.0     0.047075     0.380399     0.666649    Uiso  ? Co
   Co29       1.0     0.332889     0.952907     0.666612    Uiso  ? Co
   Co30       1.0     0.333646     0.380401     0.666698    Uiso  ? Co
   Co31       1.0     0.619599     0.666354     0.666698    Uiso  ? Co
   Co32       1.0     0.619601     0.952925     0.666649    Uiso  ? Co
   Co33       1.0     0.998482     0.500419     0.155320    Uiso  ? Co
   Co34       1.0     0.499581     0.001518     0.155320    Uiso  ? Co
   Co35       1.0     0.501807     0.498193     0.154180    Uiso  ? Co
   Co36       1.0     0.668169     0.832877     0.178060    Uiso  ? Co
   Co37       1.0     0.167123     0.331831     0.178060    Uiso  ? Co
   Co38       1.0     0.164971     0.835029     0.179125    Uiso  ? Co
   Co39       1.0     0.662222     0.830848     0.488109    Uiso  ? Co
   Co40       1.0     0.169152     0.337778     0.488109    Uiso  ? Co
   Co41       1.0     0.168670     0.831330     0.487291    Uiso  ? Co
   Co42       1.0     0.337738     0.168753     0.513108    Uiso  ? Co
   Co43       1.0     0.831247     0.662262     0.513108    Uiso  ? Co
   Co44       1.0     0.831062     0.168938     0.513613    Uiso  ? Co
   Co45       1.0     0.328897     0.164575     0.820383    Uiso  ? Co
   Co46       1.0     0.835425     0.671103     0.820383    Uiso  ? Co
   Co47       1.0     0.835579     0.164421     0.819863    Uiso  ? Co
   Co48       1.0     0.004385     0.502485     0.844977    Uiso  ? Co
   Co49       1.0     0.497515     0.995615     0.844977    Uiso  ? Co
   Co50       1.0     0.497883     0.502117     0.845812    Uiso  ? Co
   Mn1        1.0     0.833323     0.166677     0.166672    Uiso  ? Mn
