
#======================================================================
# CRYSTAL DATA
#----------------------------------------------------------------------
data_VESTA_phase_1

_chemical_name_common                  'Sm6 Co51                              '
_cell_length_a                         8.303566
_cell_length_b                         8.303560
_cell_length_c                         12.101871
_cell_angle_alpha                      89.999992
_cell_angle_beta                       90.000008
_cell_angle_gamma                      119.999908
_cell_volume                           722.624226
_space_group_name_H-M_alt              'P 1'
_space_group_IT_number                 1

loop_
_space_group_symop_operation_xyz
   'x, y, z'

loop_
   _atom_site_label
   _atom_site_occupancy
   _atom_site_fract_x
   _atom_site_fract_y
   _atom_site_fract_z
   _atom_site_adp_type
   _atom_site_U_iso_or_equiv
   _atom_site_type_symbol
   Sm1        1.0     0.333334     0.666667     0.013646    Uiso  ? Sm
   Sm2        1.0     0.666665     0.333335    -0.010597    Uiso  ? Sm
   Sm3        1.0     0.000000    -0.000002     0.345203    Uiso  ? Sm
   Sm4        1.0     0.000001    -0.000003     0.655345    Uiso  ? Sm
   Sm5        1.0     0.666665     0.333336     0.677372    Uiso  ? Sm
   Co1        1.0     0.000000    -0.000000     0.098283    Uiso  ? Co
   Co2        1.0     0.666668     0.333335     0.237830    Uiso  ? Co
   Co3        1.0     0.666669     0.333334     0.428602    Uiso  ? Co
   Co4        1.0     0.333334     0.666666     0.564968    Uiso  ? Co
   Co5        1.0     0.333331     0.666666     0.759782    Uiso  ? Co
   Co6        1.0    -0.000003    -0.000000     0.905347    Uiso  ? Co
   Co7        1.0     0.833518     0.166483     0.167273    Uiso  ? Co
   Co8        1.0     0.332966     0.166482     0.167272    Uiso  ? Co
   Co9        1.0     0.833519     0.667036     0.167273    Uiso  ? Co
   Co10       1.0     0.499631     0.500372     0.498930    Uiso  ? Co
   Co11       1.0     0.000745     0.500374     0.498928    Uiso  ? Co
   Co12       1.0     0.499627    -0.000743     0.498931    Uiso  ? Co
   Co13       1.0     0.166826     0.333652     0.833416    Uiso  ? Co
   Co14       1.0     0.166823     0.833173     0.833415    Uiso  ? Co
   Co15       1.0     0.666346     0.833172     0.833417    Uiso  ? Co
   Co16       1.0     0.000597     0.713417     0.001039    Uiso  ? Co
   Co17       1.0     0.000597     0.287181     0.001039    Uiso  ? Co
   Co18       1.0     0.286580    -0.000598     0.001039    Uiso  ? Co
   Co19       1.0     0.286583     0.287179     0.001038    Uiso  ? Co
   Co20       1.0     0.712820     0.713416     0.001039    Uiso  ? Co
   Co21       1.0     0.712820    -0.000598     0.001038    Uiso  ? Co
   Co22       1.0     0.377031     0.336555     0.333065    Uiso  ? Co
   Co23       1.0     0.377031     0.040478     0.333065    Uiso  ? Co
   Co24       1.0     0.663447     0.040473     0.333065    Uiso  ? Co
   Co25       1.0     0.663447     0.622974     0.333065    Uiso  ? Co
   Co26       1.0     0.959525     0.336554     0.333065    Uiso  ? Co
   Co27       1.0     0.959524     0.622971     0.333065    Uiso  ? Co
   Co28       1.0     0.046661     0.667069     0.666010    Uiso  ? Co
   Co29       1.0     0.046661     0.379594     0.666011    Uiso  ? Co
   Co30       1.0     0.332930     0.953335     0.666010    Uiso  ? Co
   Co31       1.0     0.332934     0.379596     0.666012    Uiso  ? Co
   Co32       1.0     0.620406     0.667065     0.666013    Uiso  ? Co
   Co33       1.0     0.620407     0.953337     0.666011    Uiso  ? Co
   Co34       1.0    -0.000761     0.499621     0.156091    Uiso  ? Co
   Co35       1.0     0.500380     0.000760     0.156092    Uiso  ? Co
   Co36       1.0     0.500382     0.499620     0.156090    Uiso  ? Co
   Co37       1.0     0.663538     0.831768     0.184058    Uiso  ? Co
   Co38       1.0     0.168233     0.336464     0.184058    Uiso  ? Co
   Co39       1.0     0.168232     0.831769     0.184059    Uiso  ? Co
   Co40       1.0     0.657093     0.828545     0.482851    Uiso  ? Co
   Co41       1.0     0.171456     0.342907     0.482850    Uiso  ? Co
   Co42       1.0     0.171456     0.828547     0.482851    Uiso  ? Co
   Co43       1.0     0.337593     0.168798     0.512681    Uiso  ? Co
   Co44       1.0     0.831206     0.662410     0.512680    Uiso  ? Co
   Co45       1.0     0.831205     0.168795     0.512683    Uiso  ? Co
   Co46       1.0     0.328965     0.164481     0.820933    Uiso  ? Co
   Co47       1.0     0.835517     0.671032     0.820935    Uiso  ? Co
   Co48       1.0     0.835518     0.164484     0.820933    Uiso  ? Co
   Co49       1.0     0.004763     0.502383     0.845834    Uiso  ? Co
   Co50       1.0     0.497613     0.995234     0.845834    Uiso  ? Co
   Co51       1.0     0.497616     0.502381     0.845834    Uiso  ? Co
   Mn1        1.0     0.333330     0.666667     0.317327    Uiso  ? Mn
