
#======================================================================
# CRYSTAL DATA
#----------------------------------------------------------------------
data_VESTA_phase_1

_chemical_name_common                  'Sm6 Co51                              '
_cell_length_a                         8.347550
_cell_length_b                         8.349237
_cell_length_c                         12.123966
_cell_angle_alpha                      90.010246
_cell_angle_beta                       90.001518
_cell_angle_gamma                      119.992386
_cell_volume                           731.837259
_space_group_name_H-M_alt              'P 1'
_space_group_IT_number                 1

loop_
_space_group_symop_operation_xyz
   'x, y, z'

loop_
   _atom_site_label
   _atom_site_occupancy
   _atom_site_fract_x
   _atom_site_fract_y
   _atom_site_fract_z
   _atom_site_adp_type
   _atom_site_U_iso_or_equiv
   _atom_site_type_symbol
   Sm1        1.0     0.333679     0.666305     0.011746    Uiso  ? Sm
   Sm2        1.0     0.665865     0.333562     0.988967    Uiso  ? Sm
   Sm3        1.0     0.333330     0.672032     0.321969    Uiso  ? Sm
   Sm4        1.0     0.994655     0.994624     0.344719    Uiso  ? Sm
   Sm5        1.0     0.000660     0.000286     0.655062    Uiso  ? Sm
   Sm6        1.0     0.665814     0.333207     0.677502    Uiso  ? Sm
   Co1        1.0     0.000426     0.000406     0.096087    Uiso  ? Co
   Co2        1.0     0.669887     0.333707     0.236484    Uiso  ? Co
   Co3        1.0     0.669659     0.333047     0.429919    Uiso  ? Co
   Co4        1.0     0.333366     0.666134     0.570528    Uiso  ? Co
   Co5        1.0     0.333030     0.666202     0.762664    Uiso  ? Co
   Co6        1.0     0.000065     0.000276     0.904062    Uiso  ? Co
   Co7        1.0     0.833688     0.166085     0.166699    Uiso  ? Co
   Co8        1.0     0.331301     0.165331     0.166641    Uiso  ? Co
   Co9        1.0     0.833305     0.666397     0.166237    Uiso  ? Co
   Co10       1.0     0.499200     0.501528     0.499949    Uiso  ? Co
   Co11       1.0     0.001172     0.500728     0.499877    Uiso  ? Co
   Co12       1.0     0.500400     0.000560     0.500462    Uiso  ? Co
   Co13       1.0     0.166510     0.333273     0.833406    Uiso  ? Co
   Co14       1.0     0.166258     0.833286     0.833097    Uiso  ? Co
   Co15       1.0     0.666342     0.833383     0.833670    Uiso  ? Co
   Co16       1.0     0.000344     0.713228     0.999893    Uiso  ? Co
   Co17       1.0     0.999789     0.286600     0.000218    Uiso  ? Co
   Co18       1.0     0.286588     0.999106     0.999660    Uiso  ? Co
   Co19       1.0     0.285514     0.285819     0.000149    Uiso  ? Co
   Co20       1.0     0.715296     0.715336     0.999790    Uiso  ? Co
   Co21       1.0     0.713424     0.000638     0.000019    Uiso  ? Co
   Co22       1.0     0.381509     0.049820     0.333984    Uiso  ? Co
   Co23       1.0     0.667013     0.049039     0.333465    Uiso  ? Co
   Co24       1.0     0.665056     0.616896     0.332686    Uiso  ? Co
   Co25       1.0     0.955101     0.333298     0.333348    Uiso  ? Co
   Co26       1.0     0.951349     0.617683     0.333172    Uiso  ? Co
   Co27       1.0     0.046467     0.666113     0.666639    Uiso  ? Co
   Co28       1.0     0.046820     0.380234     0.666477    Uiso  ? Co
   Co29       1.0     0.333282     0.951378     0.666916    Uiso  ? Co
   Co30       1.0     0.333065     0.380725     0.666566    Uiso  ? Co
   Co31       1.0     0.620592     0.667492     0.667063    Uiso  ? Co
   Co32       1.0     0.620143     0.953191     0.666833    Uiso  ? Co
   Co33       1.0     0.995129     0.497357     0.153347    Uiso  ? Co
   Co34       1.0     0.502426     0.005643     0.153752    Uiso  ? Co
   Co35       1.0     0.501855     0.497705     0.152300    Uiso  ? Co
   Co36       1.0     0.670659     0.835149     0.179725    Uiso  ? Co
   Co37       1.0     0.163666     0.328311     0.181385    Uiso  ? Co
   Co38       1.0     0.163716     0.836011     0.180068    Uiso  ? Co
   Co39       1.0     0.661130     0.830796     0.486619    Uiso  ? Co
   Co40       1.0     0.168469     0.338006     0.485357    Uiso  ? Co
   Co41       1.0     0.168988     0.831593     0.486839    Uiso  ? Co
   Co42       1.0     0.337387     0.168984     0.514374    Uiso  ? Co
   Co43       1.0     0.830097     0.660967     0.512972    Uiso  ? Co
   Co44       1.0     0.831231     0.169306     0.513384    Uiso  ? Co
   Co45       1.0     0.328293     0.164341     0.820376    Uiso  ? Co
   Co46       1.0     0.835312     0.671229     0.820425    Uiso  ? Co
   Co47       1.0     0.835583     0.164417     0.820385    Uiso  ? Co
   Co48       1.0     0.004599     0.502281     0.846212    Uiso  ? Co
   Co49       1.0     0.497334     0.995316     0.846192    Uiso  ? Co
   Co50       1.0     0.497241     0.502333     0.846261    Uiso  ? Co
   Cr1        1.0     0.386920     0.333300     0.333400    Uiso  ? Cr
