
#======================================================================
# CRYSTAL DATA
#----------------------------------------------------------------------
data_VESTA_phase_1

_chemical_name_common                  'Sm6 Co51                              '
_cell_length_a                         8.348462
_cell_length_b                         8.348462
_cell_length_c                         12.158232
_cell_angle_alpha                      89.985153
_cell_angle_beta                       90.014847
_cell_angle_gamma                      120.054138
_cell_volume                           733.460633
_space_group_name_H-M_alt              'P 1'
_space_group_IT_number                 1

loop_
_space_group_symop_operation_xyz
   'x, y, z'

loop_
   _atom_site_label
   _atom_site_occupancy
   _atom_site_fract_x
   _atom_site_fract_y
   _atom_site_fract_z
   _atom_site_adp_type
   _atom_site_U_iso_or_equiv
   _atom_site_type_symbol
   Sm1        1.0     0.331761     0.668239     0.010053    Uiso  ? Sm
   Sm2        1.0     0.667279     0.332721    -0.012190    Uiso  ? Sm
   Sm3        1.0     0.333145     0.666855     0.322966    Uiso  ? Sm
   Sm4        1.0    -0.000259     0.000259     0.344377    Uiso  ? Sm
   Sm5        1.0     0.000044    -0.000044     0.655566    Uiso  ? Sm
   Sm6        1.0     0.666438     0.333562     0.677461    Uiso  ? Sm
   Co1        1.0     0.000319    -0.000319     0.095530    Uiso  ? Co
   Co2        1.0     0.668638     0.331362     0.237827    Uiso  ? Co
   Co3        1.0     0.666413     0.333587     0.429434    Uiso  ? Co
   Co4        1.0     0.333353     0.666647     0.570901    Uiso  ? Co
   Co5        1.0     0.333338     0.666662     0.762386    Uiso  ? Co
   Co6        1.0    -0.000004     0.000004     0.903357    Uiso  ? Co
   Co7        1.0     0.834409     0.165591     0.167198    Uiso  ? Co
   Co8        1.0     0.332720     0.165769     0.166287    Uiso  ? Co
   Co9        1.0     0.834231     0.667280     0.166287    Uiso  ? Co
   Co10       1.0     0.499798     0.500202     0.500622    Uiso  ? Co
   Co11       1.0    -0.000422     0.500152     0.500123    Uiso  ? Co
   Co12       1.0     0.499848     0.000422     0.500123    Uiso  ? Co
   Co13       1.0     0.165861     0.332931     0.832935    Uiso  ? Co
   Co14       1.0     0.166740     0.833260     0.833077    Uiso  ? Co
   Co15       1.0     0.667069     0.834139     0.832935    Uiso  ? Co
   Co16       1.0     0.000274     0.713863    -0.000367    Uiso  ? Co
   Co17       1.0    -0.000228     0.286204    -0.000010    Uiso  ? Co
   Co18       1.0     0.286137    -0.000274    -0.000367    Uiso  ? Co
   Co19       1.0     0.284356     0.283755    -0.001501    Uiso  ? Co
   Co20       1.0     0.716245     0.715644    -0.001501    Uiso  ? Co
   Co21       1.0     0.713796     0.000228    -0.000010    Uiso  ? Co
   Co22       1.0     0.380186     0.332191     0.334980    Uiso  ? Co
   Co23       1.0     0.379919     0.046366     0.333106    Uiso  ? Co
   Co24       1.0     0.666967     0.046978     0.333931    Uiso  ? Co
   Co25       1.0     0.667809     0.619814     0.334980    Uiso  ? Co
   Co26       1.0     0.953022     0.333033     0.333931    Uiso  ? Co
   Co27       1.0     0.953634     0.620081     0.333106    Uiso  ? Co
   Co28       1.0     0.047414     0.666646     0.666549    Uiso  ? Co
   Co29       1.0     0.046506     0.380107     0.666632    Uiso  ? Co
   Co30       1.0     0.333354     0.952586     0.666549    Uiso  ? Co
   Co31       1.0     0.333414     0.380402     0.667153    Uiso  ? Co
   Co32       1.0     0.619598     0.666586     0.667153    Uiso  ? Co
   Co33       1.0     0.619893     0.953494     0.666632    Uiso  ? Co
   Co34       1.0     0.995073     0.496764     0.154621    Uiso  ? Co
   Co35       1.0     0.503236     0.004927     0.154621    Uiso  ? Co
   Co36       1.0     0.670836     0.835479     0.178457    Uiso  ? Co
   Co37       1.0     0.164521     0.329164     0.178457    Uiso  ? Co
   Co38       1.0     0.163909     0.836091     0.179738    Uiso  ? Co
   Co39       1.0     0.662010     0.831458     0.488223    Uiso  ? Co
   Co40       1.0     0.168542     0.337990     0.488223    Uiso  ? Co
   Co41       1.0     0.168954     0.831046     0.487413    Uiso  ? Co
   Co42       1.0     0.337421     0.168982     0.512590    Uiso  ? Co
   Co43       1.0     0.831018     0.662579     0.512590    Uiso  ? Co
   Co44       1.0     0.830854     0.169146     0.513237    Uiso  ? Co
   Co45       1.0     0.328572     0.164256     0.819387    Uiso  ? Co
   Co46       1.0     0.835744     0.671428     0.819387    Uiso  ? Co
   Co47       1.0     0.835366     0.164634     0.820349    Uiso  ? Co
   Co48       1.0     0.004386     0.502296     0.845438    Uiso  ? Co
   Co49       1.0     0.497704     0.995614     0.845438    Uiso  ? Co
   Co50       1.0     0.497160     0.502840     0.847827    Uiso  ? Co
   Cr1        1.0     0.501680     0.498320     0.155800    Uiso  ? Cr
