
#======================================================================
# CRYSTAL DATA
#----------------------------------------------------------------------
data_VESTA_phase_1

_chemical_name_common                  'Sm9 Co27                              '
_cell_length_a                         5.005260
_cell_length_b                         5.005323
_cell_length_c                         24.682207
_cell_angle_alpha                      90.109299
_cell_angle_beta                       89.890625
_cell_angle_gamma                      119.507187
_cell_volume                           538.155357
_space_group_name_H-M_alt              'P 1'
_space_group_IT_number                 1

loop_
_space_group_symop_operation_xyz
   'x, y, z'

loop_
   _atom_site_label
   _atom_site_occupancy
   _atom_site_fract_x
   _atom_site_fract_y
   _atom_site_fract_z
   _atom_site_adp_type
   _atom_site_U_iso_or_equiv
   _atom_site_type_symbol
   Sm1        1.0     0.999601     0.000301     0.000083    Uiso  ? Sm
   Sm2        1.0     0.663023     0.336976     0.331927    Uiso  ? Sm
   Sm3        1.0     0.336754     0.663341     0.667153    Uiso  ? Sm
   Sm4        1.0     0.664036     0.336002     0.193338    Uiso  ? Sm
   Sm5        1.0     0.998393     0.001570     0.139796    Uiso  ? Sm
   Sm6        1.0     0.338551     0.661524     0.527462    Uiso  ? Sm
   Sm7        1.0     0.669854     0.330214     0.474513    Uiso  ? Sm
   Sm8        1.0     0.000716     0.999187     0.860477    Uiso  ? Sm
   Sm9        1.0     0.335209     0.664775     0.806806    Uiso  ? Sm
   Co1        1.0     0.331575     0.668434     0.165444    Uiso  ? Co
   Co2        1.0     0.004850     0.995238     0.500944    Uiso  ? Co
   Co3        1.0     0.667820     0.332097     0.833898    Uiso  ? Co
   Co4        1.0     0.337810     0.662140     0.333245    Uiso  ? Co
   Co5        1.0     0.335685     0.664195     0.000882    Uiso  ? Co
   Co6        1.0     0.002748    -0.002563     0.667098    Uiso  ? Co
   Co7        1.0    -0.013249     0.013259     0.331002    Uiso  ? Co
   Co8        1.0     0.663682     0.336314     0.999039    Uiso  ? Co
   Co9        1.0     0.670478     0.329424     0.667955    Uiso  ? Co
   Co10       1.0     0.657387     0.834644     0.252231    Uiso  ? Co
   Co11       1.0     0.165368     0.342607     0.252228    Uiso  ? Co
   Co12       1.0     0.163595     0.836451     0.253630    Uiso  ? Co
   Co13       1.0     0.998061     0.501112     0.079722    Uiso  ? Co
   Co14       1.0     0.498864     0.001955     0.079718    Uiso  ? Co
   Co15       1.0     0.498661     0.501301     0.080368    Uiso  ? Co
   Co16       1.0     0.335500     0.160972     0.587462    Uiso  ? Co
   Co17       1.0     0.839085     0.664560     0.587472    Uiso  ? Co
   Co18       1.0     0.837318     0.162766     0.587646    Uiso  ? Co
   Co19       1.0     0.664865     0.833218     0.413057    Uiso  ? Co
   Co20       1.0     0.166841     0.335160     0.413059    Uiso  ? Co
   Co21       1.0     0.000861     0.499680     0.920159    Uiso  ? Co
   Co22       1.0     0.500230     0.999071     0.920160    Uiso  ? Co
   Co23       1.0     0.500526     0.499355     0.919525    Uiso  ? Co
   Co24       1.0     0.336738     0.164478     0.747406    Uiso  ? Co
   Co25       1.0     0.835529     0.663228     0.747391    Uiso  ? Co
   Co26       1.0     0.835688     0.164348     0.747665    Uiso  ? Co
   Cr1        1.0     0.157348     0.842667     0.410041    Uiso  ? Cr
