
#======================================================================
# CRYSTAL DATA
#----------------------------------------------------------------------
data_VESTA_phase_1

_chemical_name_common                  'Sm6 Co51                              '
_cell_length_a                         8.340657
_cell_length_b                         8.340657
_cell_length_c                         12.143147
_cell_angle_alpha                      90.000000
_cell_angle_beta                       90.000000
_cell_angle_gamma                      120.000000
_cell_volume                           731.580995
_space_group_name_H-M_alt              'P 1'
_space_group_IT_number                 1

loop_
_space_group_symop_operation_xyz
   'x, y, z'

loop_
   _atom_site_label
   _atom_site_occupancy
   _atom_site_fract_x
   _atom_site_fract_y
   _atom_site_fract_z
   _atom_site_adp_type
   _atom_site_U_iso_or_equiv
   _atom_site_type_symbol
   Sm1        1.0     0.333333     0.666667     0.011448    Uiso  ? Sm
   Sm2        1.0     0.666667     0.333333     0.984912    Uiso  ? Sm
   Sm3        1.0     0.333333     0.666667     0.321888    Uiso  ? Sm
   Sm4        1.0     0.000000     0.000000     0.343765    Uiso  ? Sm
   Sm5        1.0     0.000000     0.000000     0.655695    Uiso  ? Sm
   Sm6        1.0     0.666667     0.333333     0.677145    Uiso  ? Sm
   Co1        1.0     0.000000     0.000000     0.095422    Uiso  ? Co
   Co2        1.0     0.666667     0.333333     0.429685    Uiso  ? Co
   Co3        1.0     0.333333     0.666667     0.570619    Uiso  ? Co
   Co4        1.0     0.333333     0.666667     0.762514    Uiso  ? Co
   Co5        1.0     0.000000     0.000000     0.904150    Uiso  ? Co
   Co6        1.0     0.833563     0.166437     0.166120    Uiso  ? Co
   Co7        1.0     0.332872     0.166437     0.166120    Uiso  ? Co
   Co8        1.0     0.833563     0.667127     0.166120    Uiso  ? Co
   Co9        1.0     0.499712     0.500288     0.499924    Uiso  ? Co
   Co10       1.0     0.000575     0.500288     0.499924    Uiso  ? Co
   Co11       1.0     0.499712     0.999425     0.499924    Uiso  ? Co
   Co12       1.0     0.166543     0.333085     0.833464    Uiso  ? Co
   Co13       1.0     0.166543     0.833457     0.833464    Uiso  ? Co
   Co14       1.0     0.666915     0.833457     0.833464    Uiso  ? Co
   Co15       1.0     0.000000     0.713258     0.000123    Uiso  ? Co
   Co16       1.0     0.000000     0.286742     0.000123    Uiso  ? Co
   Co17       1.0     0.286742     1.000000     0.000123    Uiso  ? Co
   Co18       1.0     0.286742     0.286742     0.000123    Uiso  ? Co
   Co19       1.0     0.713258     0.713258     0.000123    Uiso  ? Co
   Co20       1.0     0.713258     1.000000     0.000123    Uiso  ? Co
   Co21       1.0     0.378720     0.333249     0.333505    Uiso  ? Co
   Co22       1.0     0.378720     0.045470     0.333505    Uiso  ? Co
   Co23       1.0     0.666751     0.045470     0.333505    Uiso  ? Co
   Co24       1.0     0.666751     0.621280     0.333505    Uiso  ? Co
   Co25       1.0     0.954530     0.333249     0.333505    Uiso  ? Co
   Co26       1.0     0.954530     0.621280     0.333505    Uiso  ? Co
   Co27       1.0     0.046664     0.666469     0.666963    Uiso  ? Co
   Co28       1.0     0.046664     0.380196     0.666963    Uiso  ? Co
   Co29       1.0     0.333531     0.953336     0.666963    Uiso  ? Co
   Co30       1.0     0.333531     0.380196     0.666963    Uiso  ? Co
   Co31       1.0     0.619804     0.666469     0.666963    Uiso  ? Co
   Co32       1.0     0.619804     0.953336     0.666963    Uiso  ? Co
   Co33       1.0     0.994606     0.497303     0.153188    Uiso  ? Co
   Co34       1.0     0.502697     0.005394     0.153188    Uiso  ? Co
   Co35       1.0     0.502697     0.497303     0.153188    Uiso  ? Co
   Co36       1.0     0.671789     0.835894     0.179891    Uiso  ? Co
   Co37       1.0     0.164106     0.328211     0.179891    Uiso  ? Co
   Co38       1.0     0.164106     0.835894     0.179891    Uiso  ? Co
   Co39       1.0     0.662261     0.831130     0.488117    Uiso  ? Co
   Co40       1.0     0.168870     0.337739     0.488117    Uiso  ? Co
   Co41       1.0     0.168870     0.831130     0.488117    Uiso  ? Co
   Co42       1.0     0.337710     0.168856     0.512496    Uiso  ? Co
   Co43       1.0     0.831144     0.662290     0.512496    Uiso  ? Co
   Co44       1.0     0.831144     0.168856     0.512496    Uiso  ? Co
   Co45       1.0     0.328474     0.164238     0.820427    Uiso  ? Co
   Co46       1.0     0.835763     0.671526     0.820427    Uiso  ? Co
   Co47       1.0     0.835763     0.164238     0.820427    Uiso  ? Co
   Co48       1.0     0.005168     0.502584     0.846112    Uiso  ? Co
   Co49       1.0     0.497416     0.994832     0.846112    Uiso  ? Co
   Co50       1.0     0.497416     0.502584     0.846112    Uiso  ? Co
   Cr1        1.0     0.666667     0.333333     0.239988    Uiso  ? Cr
