
#======================================================================
# CRYSTAL DATA
#----------------------------------------------------------------------
data_VESTA_phase_1

_chemical_name_common                  'Sm6 Co51                              '
_cell_length_a                         8.350078
_cell_length_b                         8.350078
_cell_length_c                         12.127603
_cell_angle_alpha                      90.039558
_cell_angle_beta                       89.960442
_cell_angle_gamma                      120.129379
_cell_volume                           731.339119
_space_group_name_H-M_alt              'P 1'
_space_group_IT_number                 1

loop_
_space_group_symop_operation_xyz
   'x, y, z'

loop_
   _atom_site_label
   _atom_site_occupancy
   _atom_site_fract_x
   _atom_site_fract_y
   _atom_site_fract_z
   _atom_site_adp_type
   _atom_site_U_iso_or_equiv
   _atom_site_type_symbol
   Sm1        1.0     0.333283     0.666717     0.012166    Uiso  ? Sm
   Sm2        1.0     0.665638     0.334362     0.987297    Uiso  ? Sm
   Sm3        1.0     0.333357     0.666643     0.321093    Uiso  ? Sm
   Sm4        1.0     0.001081     0.998919     0.345939    Uiso  ? Sm
   Sm5        1.0     0.000046     0.999954     0.655794    Uiso  ? Sm
   Sm6        1.0     0.666612     0.333388     0.677677    Uiso  ? Sm
   Co1        1.0     0.000293     0.999707     0.096693    Uiso  ? Co
   Co2        1.0     0.666384     0.333616     0.236624    Uiso  ? Co
   Co3        1.0     0.666737     0.333263     0.428964    Uiso  ? Co
   Co4        1.0     0.333297     0.666703     0.570378    Uiso  ? Co
   Co5        1.0     0.333345     0.666655     0.762721    Uiso  ? Co
   Co6        1.0     0.999920     0.000080     0.904524    Uiso  ? Co
   Co7        1.0     0.333385     0.166667     0.166591    Uiso  ? Co
   Co8        1.0     0.833333     0.666615     0.166591    Uiso  ? Co
   Co9        1.0     0.999693     0.499906     0.500160    Uiso  ? Co
   Co10       1.0     0.500094     0.000307     0.500160    Uiso  ? Co
   Co11       1.0     0.499939     0.500061     0.499745    Uiso  ? Co
   Co12       1.0     0.166552     0.333072     0.833255    Uiso  ? Co
   Co13       1.0     0.166699     0.833301     0.833569    Uiso  ? Co
   Co14       1.0     0.666928     0.833448     0.833255    Uiso  ? Co
   Co15       1.0     0.999909     0.713823     0.000307    Uiso  ? Co
   Co16       1.0     0.999437     0.286897     0.000117    Uiso  ? Co
   Co17       1.0     0.286177     0.000091     0.000307    Uiso  ? Co
   Co18       1.0     0.285421     0.286431     0.000279    Uiso  ? Co
   Co19       1.0     0.713569     0.714579     0.000279    Uiso  ? Co
   Co20       1.0     0.713103     0.000563     0.000117    Uiso  ? Co
   Co21       1.0     0.380516     0.333174     0.333019    Uiso  ? Co
   Co22       1.0     0.381309     0.046980     0.333047    Uiso  ? Co
   Co23       1.0     0.667160     0.046540     0.333281    Uiso  ? Co
   Co24       1.0     0.666825     0.619484     0.333019    Uiso  ? Co
   Co25       1.0     0.953460     0.332840     0.333281    Uiso  ? Co
   Co26       1.0     0.953020     0.618691     0.333047    Uiso  ? Co
   Co27       1.0     0.046977     0.666672     0.666894    Uiso  ? Co
   Co28       1.0     0.047025     0.380343     0.666664    Uiso  ? Co
   Co29       1.0     0.333328     0.953023     0.666894    Uiso  ? Co
   Co30       1.0     0.333236     0.380293     0.666420    Uiso  ? Co
   Co31       1.0     0.619707     0.666764     0.666420    Uiso  ? Co
   Co32       1.0     0.619657     0.952975     0.666664    Uiso  ? Co
   Co33       1.0     0.992654     0.496197     0.152277    Uiso  ? Co
   Co34       1.0     0.503803     0.007346     0.152277    Uiso  ? Co
   Co35       1.0     0.502950     0.497050     0.152284    Uiso  ? Co
   Co36       1.0     0.674017     0.837015     0.181154    Uiso  ? Co
   Co37       1.0     0.162985     0.325983     0.181154    Uiso  ? Co
   Co38       1.0     0.163753     0.836247     0.181121    Uiso  ? Co
   Co39       1.0     0.662041     0.831061     0.486769    Uiso  ? Co
   Co40       1.0     0.168939     0.337959     0.486769    Uiso  ? Co
   Co41       1.0     0.169259     0.830741     0.487313    Uiso  ? Co
   Co42       1.0     0.338171     0.169055     0.512814    Uiso  ? Co
   Co43       1.0     0.830945     0.661829     0.512814    Uiso  ? Co
   Co44       1.0     0.830903     0.169097     0.512470    Uiso  ? Co
   Co45       1.0     0.328443     0.164265     0.820621    Uiso  ? Co
   Co46       1.0     0.835735     0.671557     0.820621    Uiso  ? Co
   Co47       1.0     0.835768     0.164232     0.820947    Uiso  ? Co
   Co48       1.0     0.004764     0.502350     0.846366    Uiso  ? Co
   Co49       1.0     0.497650     0.995236     0.846366    Uiso  ? Co
   Co50       1.0     0.497413     0.502587     0.845823    Uiso  ? Co
   Cr1        1.0     0.833355     0.166645     0.166783    Uiso  ? Cr
