
#======================================================================
# CRYSTAL DATA
#----------------------------------------------------------------------
data_VESTA_phase_1

_chemical_name_common                  'Sm6 Co51                              '
_cell_length_a                         8.304073
_cell_length_b                         8.303933
_cell_length_c                         12.108516
_cell_angle_alpha                      89.999557
_cell_angle_beta                       89.999886
_cell_angle_gamma                      120.000504
_cell_volume                           723.093335
_space_group_name_H-M_alt              'P 1'
_space_group_IT_number                 1

loop_
_space_group_symop_operation_xyz
   'x, y, z'

loop_
   _atom_site_label
   _atom_site_occupancy
   _atom_site_fract_x
   _atom_site_fract_y
   _atom_site_fract_z
   _atom_site_adp_type
   _atom_site_U_iso_or_equiv
   _atom_site_type_symbol
   Sm1        1.0     0.333341     0.666677     0.014464    Uiso  ? Sm
   Sm2        1.0     0.666668     0.333347     0.989117    Uiso  ? Sm
   Sm3        1.0    -0.000006    -0.000021     0.345057    Uiso  ? Sm
   Sm4        1.0    -0.000005    -0.000022     0.655307    Uiso  ? Sm
   Sm5        1.0     0.666669     0.333355     0.677498    Uiso  ? Sm
   Co1        1.0    -0.000002     0.999995     0.098138    Uiso  ? Co
   Co2        1.0     0.666666     0.333334     0.237868    Uiso  ? Co
   Co3        1.0     0.666666     0.333336     0.428633    Uiso  ? Co
   Co4        1.0     0.333338     0.666674     0.565227    Uiso  ? Co
   Co5        1.0     0.333334     0.666665     0.759741    Uiso  ? Co
   Co6        1.0     0.000001    -0.000002     0.905221    Uiso  ? Co
   Co7        1.0     0.833280     0.166701     0.166979    Uiso  ? Co
   Co8        1.0     0.333420     0.166704     0.166980    Uiso  ? Co
   Co9        1.0     0.833287     0.666581     0.166974    Uiso  ? Co
   Co10       1.0     0.499675     0.500321     0.498776    Uiso  ? Co
   Co11       1.0     0.000647     0.500328     0.498777    Uiso  ? Co
   Co12       1.0     0.499669     0.999347     0.498771    Uiso  ? Co
   Co13       1.0     0.166876     0.333750     0.833313    Uiso  ? Co
   Co14       1.0     0.166863     0.833116     0.833316    Uiso  ? Co
   Co15       1.0     0.666249     0.833113     0.833316    Uiso  ? Co
   Co16       1.0     0.000528     0.713394     0.000877    Uiso  ? Co
   Co17       1.0     0.000530     0.287141     0.000877    Uiso  ? Co
   Co18       1.0     0.286610     0.999465     0.000878    Uiso  ? Co
   Co19       1.0     0.286615     0.287143     0.000876    Uiso  ? Co
   Co20       1.0     0.712863     0.713391     0.000877    Uiso  ? Co
   Co21       1.0     0.712855     0.999463     0.000879    Uiso  ? Co
   Co22       1.0     0.376824     0.336094     0.333076    Uiso  ? Co
   Co23       1.0     0.376823     0.040727     0.333074    Uiso  ? Co
   Co24       1.0     0.663900     0.040726     0.333073    Uiso  ? Co
   Co25       1.0     0.663897     0.623175     0.333072    Uiso  ? Co
   Co26       1.0     0.959273     0.336097     0.333075    Uiso  ? Co
   Co27       1.0     0.959273     0.623184     0.333073    Uiso  ? Co
   Co28       1.0     0.046587     0.667027     0.666058    Uiso  ? Co
   Co29       1.0     0.046585     0.379565     0.666056    Uiso  ? Co
   Co30       1.0     0.332976     0.953416     0.666051    Uiso  ? Co
   Co31       1.0     0.332981     0.379564     0.666055    Uiso  ? Co
   Co32       1.0     0.620440     0.667025     0.666058    Uiso  ? Co
   Co33       1.0     0.620439     0.953415     0.666052    Uiso  ? Co
   Co34       1.0     0.998706     0.499361     0.156307    Uiso  ? Co
   Co35       1.0     0.500636     0.001274     0.156308    Uiso  ? Co
   Co36       1.0     0.500656     0.499361     0.156308    Uiso  ? Co
   Co37       1.0     0.664490     0.832245     0.183828    Uiso  ? Co
   Co38       1.0     0.167757     0.335508     0.183824    Uiso  ? Co
   Co39       1.0     0.167757     0.832248     0.183828    Uiso  ? Co
   Co40       1.0     0.657221     0.828617     0.483120    Uiso  ? Co
   Co41       1.0     0.171392     0.342775     0.483124    Uiso  ? Co
   Co42       1.0     0.171401     0.828621     0.483120    Uiso  ? Co
   Co43       1.0     0.337545     0.168772     0.512743    Uiso  ? Co
   Co44       1.0     0.831229     0.662460     0.512743    Uiso  ? Co
   Co45       1.0     0.831224     0.168770     0.512750    Uiso  ? Co
   Co46       1.0     0.328934     0.164471     0.820936    Uiso  ? Co
   Co47       1.0     0.835535     0.671069     0.820938    Uiso  ? Co
   Co48       1.0     0.835537     0.164471     0.820938    Uiso  ? Co
   Co49       1.0     0.004863     0.502440     0.845695    Uiso  ? Co
   Co50       1.0     0.497570     0.995140     0.845694    Uiso  ? Co
   Co51       1.0     0.497576     0.502440     0.845696    Uiso  ? Co
   Cr1        1.0     0.333337     0.666649     0.318590    Uiso  ? Cr
