
#======================================================================
# CRYSTAL DATA
#----------------------------------------------------------------------
data_VESTA_phase_1

_chemical_name_common                  'Sm6 Co51                              '
_cell_length_a                         8.355441
_cell_length_b                         8.376788
_cell_length_c                         12.215026
_cell_angle_alpha                      89.872353
_cell_angle_beta                       89.999100
_cell_angle_gamma                      119.915672
_cell_volume                           741.035313
_space_group_name_H-M_alt              'P 1'
_space_group_IT_number                 1

loop_
_space_group_symop_operation_xyz
   'x, y, z'

loop_
   _atom_site_label
   _atom_site_occupancy
   _atom_site_fract_x
   _atom_site_fract_y
   _atom_site_fract_z
   _atom_site_adp_type
   _atom_site_U_iso_or_equiv
   _atom_site_type_symbol
   Sm1        1.0     0.333375     0.667833     0.009971    Uiso  ? Sm
   Sm2        1.0     0.666328     0.333457    -0.011591    Uiso  ? Sm
   Sm3        1.0     0.336080     0.687710     0.321451    Uiso  ? Sm
   Sm4        1.0    -0.018293    -0.021001     0.345255    Uiso  ? Sm
   Sm5        1.0    -0.001152    -0.001172     0.656736    Uiso  ? Sm
   Sm6        1.0     0.666251     0.333218     0.678171    Uiso  ? Sm
   Co1        1.0    -0.000232    -0.000553     0.094551    Uiso  ? Co
   Co2        1.0     0.673360     0.332807     0.236734    Uiso  ? Co
   Co3        1.0     0.673926     0.333868     0.429932    Uiso  ? Co
   Co4        1.0     0.333644     0.667217     0.572069    Uiso  ? Co
   Co5        1.0     0.332775     0.665968     0.763110    Uiso  ? Co
   Co6        1.0     0.000170     0.000736     0.903562    Uiso  ? Co
   Co7        1.0     0.834073     0.166442     0.166863    Uiso  ? Co
   Co8        1.0     0.333765     0.161588     0.158726    Uiso  ? Co
   Co9        1.0     0.832099     0.663245     0.165850    Uiso  ? Co
   Co10       1.0     0.505448     0.504992     0.507960    Uiso  ? Co
   Co11       1.0     0.000883     0.500139     0.499805    Uiso  ? Co
   Co12       1.0     0.502303     0.003558     0.500814    Uiso  ? Co
   Co13       1.0     0.165167     0.333355     0.833400    Uiso  ? Co
   Co14       1.0     0.164375     0.832501     0.831911    Uiso  ? Co
   Co15       1.0     0.665320     0.834190     0.834767    Uiso  ? Co
   Co16       1.0     0.000132     0.713361    -0.000595    Uiso  ? Co
   Co17       1.0    -0.003302     0.285554    -0.002785    Uiso  ? Co
   Co18       1.0     0.286960    -0.002303    -0.003070    Uiso  ? Co
   Co19       1.0     0.284834     0.283772    -0.003509    Uiso  ? Co
   Co20       1.0     0.717012     0.717174    -0.000489    Uiso  ? Co
   Co21       1.0     0.713061     0.001121    -0.000200    Uiso  ? Co
   Co22       1.0     0.378594     0.040242     0.332892    Uiso  ? Co
   Co23       1.0     0.671965     0.054805     0.334337    Uiso  ? Co
   Co24       1.0     0.671701     0.626446     0.333767    Uiso  ? Co
   Co25       1.0     0.973155     0.333361     0.333279    Uiso  ? Co
   Co26       1.0     0.950531     0.611911     0.332354    Uiso  ? Co
   Co27       1.0     0.045370     0.665509     0.666846    Uiso  ? Co
   Co28       1.0     0.044520     0.381131     0.669521    Uiso  ? Co
   Co29       1.0     0.333193     0.949530     0.667140    Uiso  ? Co
   Co30       1.0     0.334320     0.382857     0.670221    Uiso  ? Co
   Co31       1.0     0.622561     0.668924     0.669761    Uiso  ? Co
   Co32       1.0     0.620006     0.953211     0.667282    Uiso  ? Co
   Co33       1.0     0.995822     0.497394     0.153383    Uiso  ? Co
   Co34       1.0     0.505574     0.007298     0.153565    Uiso  ? Co
   Co35       1.0     0.505519     0.501888     0.144721    Uiso  ? Co
   Co36       1.0     0.671531     0.834756     0.177741    Uiso  ? Co
   Co37       1.0     0.161104     0.329995     0.166688    Uiso  ? Co
   Co38       1.0     0.163001     0.835779     0.177347    Uiso  ? Co
   Co39       1.0     0.660457     0.830847     0.489320    Uiso  ? Co
   Co40       1.0     0.164483     0.336691     0.499997    Uiso  ? Co
   Co41       1.0     0.170204     0.831885     0.488937    Uiso  ? Co
   Co42       1.0     0.336884     0.164797     0.521899    Uiso  ? Co
   Co43       1.0     0.831623     0.659449     0.513050    Uiso  ? Co
   Co44       1.0     0.831861     0.169251     0.513217    Uiso  ? Co
   Co45       1.0     0.327318     0.163932     0.819108    Uiso  ? Co
   Co46       1.0     0.834424     0.671409     0.821266    Uiso  ? Co
   Co47       1.0     0.834095     0.163617     0.819503    Uiso  ? Co
   Co48       1.0     0.003882     0.503112     0.847204    Uiso  ? Co
   Co49       1.0     0.496242     0.995100     0.845387    Uiso  ? Co
   Co50       1.0     0.496736     0.502735     0.847556    Uiso  ? Co
   Zr1        1.0     0.364964     0.333360     0.333315    Uiso  ? Zr
