
#======================================================================
# CRYSTAL DATA
#----------------------------------------------------------------------
data_VESTA_phase_1

_chemical_name_common                  'Sm6 Co51                              '
_cell_length_a                         8.392744
_cell_length_b                         8.392744
_cell_length_c                         12.168456
_cell_angle_alpha                      90.029320
_cell_angle_beta                       89.970680
_cell_angle_gamma                      120.011421
_cell_volume                           742.205213
_space_group_name_H-M_alt              'P 1'
_space_group_IT_number                 1

loop_
_space_group_symop_operation_xyz
   'x, y, z'

loop_
   _atom_site_label
   _atom_site_occupancy
   _atom_site_fract_x
   _atom_site_fract_y
   _atom_site_fract_z
   _atom_site_adp_type
   _atom_site_U_iso_or_equiv
   _atom_site_type_symbol
   Sm1        1.0     0.325232     0.674768     0.002737    Uiso  ? Sm
   Sm2        1.0     0.672635     0.327365    -0.018718    Uiso  ? Sm
   Sm3        1.0     0.330084     0.669916     0.327706    Uiso  ? Sm
   Sm4        1.0     0.000307    -0.000307     0.346130    Uiso  ? Sm
   Sm5        1.0    -0.000046     0.000046     0.655470    Uiso  ? Sm
   Sm6        1.0     0.666820     0.333180     0.676999    Uiso  ? Sm
   Co1        1.0     0.000113    -0.000113     0.095099    Uiso  ? Co
   Co2        1.0     0.671639     0.328361     0.238491    Uiso  ? Co
   Co3        1.0     0.665813     0.334187     0.429857    Uiso  ? Co
   Co4        1.0     0.333604     0.666396     0.571306    Uiso  ? Co
   Co5        1.0     0.334104     0.665896     0.761757    Uiso  ? Co
   Co6        1.0     0.000033    -0.000033     0.901780    Uiso  ? Co
   Co7        1.0     0.830620     0.169380     0.165335    Uiso  ? Co
   Co8        1.0     0.321794     0.153853     0.168361    Uiso  ? Co
   Co9        1.0     0.846147     0.678206     0.168361    Uiso  ? Co
   Co10       1.0     0.499879     0.500121     0.501886    Uiso  ? Co
   Co11       1.0    -0.000290     0.499099     0.500484    Uiso  ? Co
   Co12       1.0     0.500901     0.000290     0.500484    Uiso  ? Co
   Co13       1.0     0.165432     0.334201     0.832565    Uiso  ? Co
   Co14       1.0     0.165863     0.834137     0.831262    Uiso  ? Co
   Co15       1.0     0.665799     0.834568     0.832565    Uiso  ? Co
   Co16       1.0     0.001347     0.714107    -0.001274    Uiso  ? Co
   Co17       1.0    -0.000182     0.286322     0.000068    Uiso  ? Co
   Co18       1.0     0.285893    -0.001347    -0.001274    Uiso  ? Co
   Co19       1.0     0.272805     0.271397    -0.004455    Uiso  ? Co
   Co20       1.0     0.728603     0.727195    -0.004455    Uiso  ? Co
   Co21       1.0     0.713678     0.000182     0.000068    Uiso  ? Co
   Co22       1.0     0.377946     0.328372     0.339112    Uiso  ? Co
   Co23       1.0     0.381853     0.047740     0.334416    Uiso  ? Co
   Co24       1.0     0.666878     0.046973     0.334067    Uiso  ? Co
   Co25       1.0     0.671628     0.622054     0.339112    Uiso  ? Co
   Co26       1.0     0.953027     0.333122     0.334067    Uiso  ? Co
   Co27       1.0     0.952260     0.618147     0.334416    Uiso  ? Co
   Co28       1.0     0.048576     0.666676     0.665986    Uiso  ? Co
   Co29       1.0     0.047283     0.380596     0.666291    Uiso  ? Co
   Co30       1.0     0.333324     0.951424     0.665986    Uiso  ? Co
   Co31       1.0     0.334164     0.381196     0.668635    Uiso  ? Co
   Co32       1.0     0.618804     0.665836     0.668635    Uiso  ? Co
   Co33       1.0     0.619404     0.952717     0.666291    Uiso  ? Co
   Co34       1.0     0.995202     0.497818     0.154208    Uiso  ? Co
   Co35       1.0     0.502182     0.004798     0.154208    Uiso  ? Co
   Co36       1.0     0.678986     0.847638     0.182029    Uiso  ? Co
   Co37       1.0     0.152362     0.321014     0.182029    Uiso  ? Co
   Co38       1.0     0.166521     0.833479     0.179995    Uiso  ? Co
   Co39       1.0     0.662058     0.830470     0.489171    Uiso  ? Co
   Co40       1.0     0.169530     0.337942     0.489171    Uiso  ? Co
   Co41       1.0     0.169704     0.830297     0.487526    Uiso  ? Co
   Co42       1.0     0.339342     0.168948     0.514932    Uiso  ? Co
   Co43       1.0     0.831052     0.660658     0.514932    Uiso  ? Co
   Co44       1.0     0.831316     0.168684     0.512390    Uiso  ? Co
   Co45       1.0     0.328377     0.165168     0.818547    Uiso  ? Co
   Co46       1.0     0.834832     0.671623     0.818547    Uiso  ? Co
   Co47       1.0     0.835714     0.164286     0.819435    Uiso  ? Co
   Co48       1.0     0.004285     0.503095     0.843541    Uiso  ? Co
   Co49       1.0     0.496905     0.995715     0.843541    Uiso  ? Co
   Co50       1.0     0.496759     0.503241     0.852951    Uiso  ? Co
   Zr1        1.0     0.501101     0.498899     0.147232    Uiso  ? Zr
