
#======================================================================
# CRYSTAL DATA
#----------------------------------------------------------------------
data_VESTA_phase_1

_chemical_name_common                  'Sm6 Co51                              '
_cell_length_a                         8.387325
_cell_length_b                         8.387325
_cell_length_c                         12.048030
_cell_angle_alpha                      90.000000
_cell_angle_beta                       90.000000
_cell_angle_gamma                      120.000000
_cell_volume                           733.995913
_space_group_name_H-M_alt              'P 1'
_space_group_IT_number                 1

loop_
_space_group_symop_operation_xyz
   'x, y, z'

loop_
   _atom_site_label
   _atom_site_occupancy
   _atom_site_fract_x
   _atom_site_fract_y
   _atom_site_fract_z
   _atom_site_adp_type
   _atom_site_U_iso_or_equiv
   _atom_site_type_symbol
   Sm1        1.0     0.333333     0.666667     0.009945    Uiso  ? Sm
   Sm2        1.0     0.666667     0.333333    -0.002500    Uiso  ? Sm
   Sm3        1.0     0.333333     0.666667     0.320239    Uiso  ? Sm
   Sm4        1.0     -0.000000     0.000000     0.342980    Uiso  ? Sm
   Sm5        1.0     -0.000000     0.000000     0.653326    Uiso  ? Sm
   Sm6        1.0     0.666667     0.333333     0.666176    Uiso  ? Sm
   Co1        1.0     -0.000000     0.000000     0.093425    Uiso  ? Co
   Co2        1.0     0.333333     0.666667     0.569762    Uiso  ? Co
   Co3        1.0     0.333333     0.666667     0.761987    Uiso  ? Co
   Co4        1.0     -0.000000     0.000000     0.901242    Uiso  ? Co
   Co5        1.0     0.833575     0.166425     0.167909    Uiso  ? Co
   Co6        1.0     0.332849     0.166425     0.167909    Uiso  ? Co
   Co7        1.0     0.833575     0.667151     0.167909    Uiso  ? Co
   Co8        1.0     0.499799     0.500201     0.495313    Uiso  ? Co
   Co9        1.0     0.000403     0.500201     0.495313    Uiso  ? Co
   Co10       1.0     0.499799    -0.000403     0.495313    Uiso  ? Co
   Co11       1.0     0.166690     0.333379     0.831534    Uiso  ? Co
   Co12       1.0     0.166690     0.833310     0.831534    Uiso  ? Co
   Co13       1.0     0.666621     0.833310     0.831534    Uiso  ? Co
   Co14       1.0    -0.001878     0.712730    -0.002348    Uiso  ? Co
   Co15       1.0    -0.001878     0.285392    -0.002348    Uiso  ? Co
   Co16       1.0     0.287270     0.001878    -0.002348    Uiso  ? Co
   Co17       1.0     0.287270     0.285392    -0.002348    Uiso  ? Co
   Co18       1.0     0.714608     0.712730    -0.002348    Uiso  ? Co
   Co19       1.0     0.714608     0.001878    -0.002348    Uiso  ? Co
   Co20       1.0     0.354942     0.333393     0.331553    Uiso  ? Co
   Co21       1.0     0.354942     0.021549     0.331553    Uiso  ? Co
   Co22       1.0     0.666607     0.021549     0.331553    Uiso  ? Co
   Co23       1.0     0.666607     0.645058     0.331553    Uiso  ? Co
   Co24       1.0     0.978451     0.333393     0.331553    Uiso  ? Co
   Co25       1.0     0.978451     0.645058     0.331553    Uiso  ? Co
   Co26       1.0     0.046010     0.664804     0.665529    Uiso  ? Co
   Co27       1.0     0.046010     0.381207     0.665529    Uiso  ? Co
   Co28       1.0     0.335196     0.953990     0.665529    Uiso  ? Co
   Co29       1.0     0.335196     0.381207     0.665529    Uiso  ? Co
   Co30       1.0     0.618793     0.664804     0.665529    Uiso  ? Co
   Co31       1.0     0.618793     0.953990     0.665529    Uiso  ? Co
   Co32       1.0    -0.003717     0.498142     0.156353    Uiso  ? Co
   Co33       1.0     0.501858     0.003717     0.156353    Uiso  ? Co
   Co34       1.0     0.501858     0.498142     0.156353    Uiso  ? Co
   Co35       1.0     0.671550     0.835774     0.172073    Uiso  ? Co
   Co36       1.0     0.164226     0.328450     0.172073    Uiso  ? Co
   Co37       1.0     0.164226     0.835774     0.172073    Uiso  ? Co
   Co38       1.0     0.661777     0.830888     0.491142    Uiso  ? Co
   Co39       1.0     0.169112     0.338223     0.491142    Uiso  ? Co
   Co40       1.0     0.169112     0.830888     0.491142    Uiso  ? Co
   Co41       1.0     0.337077     0.168539     0.506879    Uiso  ? Co
   Co42       1.0     0.831461     0.662923     0.506879    Uiso  ? Co
   Co43       1.0     0.831461     0.168539     0.506879    Uiso  ? Co
   Co44       1.0     0.330123     0.165062     0.817115    Uiso  ? Co
   Co45       1.0     0.834938     0.669877     0.817115    Uiso  ? Co
   Co46       1.0     0.834938     0.165062     0.817115    Uiso  ? Co
   Co47       1.0     0.003152     0.501576     0.846142    Uiso  ? Co
   Co48       1.0     0.498424     0.996848     0.846142    Uiso  ? Co
   Co49       1.0     0.498424     0.501576     0.846142    Uiso  ? Co
   Zr1        1.0     0.666667     0.333333     0.332221    Uiso  ? Zr
