
#======================================================================
# CRYSTAL DATA
#----------------------------------------------------------------------
data_VESTA_phase_1

_chemical_name_common                  'Sm9 Co27'
_cell_length_a                         5.078076
_cell_length_b                         5.078076
_cell_length_c                         24.484270
_cell_angle_alpha                      90.000000
_cell_angle_beta                       90.000000
_cell_angle_gamma                      120.000000
_cell_volume                           546.784464
_space_group_name_H-M_alt              'P 1'
_space_group_IT_number                 1

loop_
_space_group_symop_operation_xyz
   'x, y, z'

loop_
   _atom_site_label
   _atom_site_occupancy
   _atom_site_fract_x
   _atom_site_fract_y
   _atom_site_fract_z
   _atom_site_adp_type
   _atom_site_U_iso_or_equiv
   _atom_site_type_symbol
   Sm1        1.0     0.000000     0.000000     0.000331    Uiso  ? Sm
   Sm2        1.0     0.666667     0.333333     0.332507    Uiso  ? Sm
   Sm3        1.0     0.333333     0.666667     0.668510    Uiso  ? Sm
   Sm4        1.0     0.666667     0.333333     0.193026    Uiso  ? Sm
   Sm5        1.0     0.000000     0.000000     0.139806    Uiso  ? Sm
   Sm6        1.0     0.333333     0.666667     0.526850    Uiso  ? Sm
   Sm7        1.0     0.666667     0.333333     0.472340    Uiso  ? Sm
   Sm8        1.0     0.000000     0.000000     0.860912    Uiso  ? Sm
   Sm9        1.0     0.333333     0.666667     0.808006    Uiso  ? Sm
   Co1        1.0     0.333333     0.666667     0.166630    Uiso  ? Co
   Co2        1.0     0.000000     0.000000     0.496526    Uiso  ? Co
   Co3        1.0     0.666667     0.333333     0.834084    Uiso  ? Co
   Co4        1.0     0.333333     0.666667     0.330835    Uiso  ? Co
   Co5        1.0     0.333333     0.666667     0.001121    Uiso  ? Co
   Co6        1.0     0.000000     0.000000     0.666699    Uiso  ? Co
   Co7        1.0     0.000000     0.000000     0.333259    Uiso  ? Co
   Co8        1.0     0.666667     0.333333     0.000454    Uiso  ? Co
   Co9        1.0     0.667095     0.833548     0.252283    Uiso  ? Co
   Co10       1.0     0.166452     0.332905     0.252283    Uiso  ? Co
   Co11       1.0     0.166452     0.833548     0.252283    Uiso  ? Co
   Co12       1.0     0.001461     0.500731     0.080668    Uiso  ? Co
   Co13       1.0     0.499270     0.998539     0.080668    Uiso  ? Co
   Co14       1.0     0.499270     0.500731     0.080668    Uiso  ? Co
   Co15       1.0     0.318524     0.159262     0.582367    Uiso  ? Co
   Co16       1.0     0.840738     0.681476     0.582367    Uiso  ? Co
   Co17       1.0     0.840738     0.159262     0.582367    Uiso  ? Co
   Co18       1.0     0.664437     0.832219     0.412052    Uiso  ? Co
   Co19       1.0     0.167781     0.335563     0.412052    Uiso  ? Co
   Co20       1.0     0.167781     0.832219     0.412052    Uiso  ? Co
   Co21       1.0    -0.000995     0.499502     0.920839    Uiso  ? Co
   Co22       1.0     0.500498     0.000995     0.920839    Uiso  ? Co
   Co23       1.0     0.500498     0.499502     0.920839    Uiso  ? Co
   Co24       1.0     0.320903     0.160452     0.751903    Uiso  ? Co
   Co25       1.0     0.839548     0.679097     0.751903    Uiso  ? Co
   Co26       1.0     0.839548     0.160452     0.751903    Uiso  ? Co
   Zr1        1.0     0.666667     0.333333     0.667773    Uiso  ? Zr
