
#======================================================================
# CRYSTAL DATA
#----------------------------------------------------------------------
data_VESTA_phase_1

_chemical_name_common                  'Sm6 Co51                              '
_cell_length_a                         8.382712
_cell_length_b                         8.382712
_cell_length_c                         12.221587
_cell_angle_alpha                      89.760063
_cell_angle_beta                       90.239937
_cell_angle_gamma                      120.049835
_cell_volume                           743.368212
_space_group_name_H-M_alt              'P 1'
_space_group_IT_number                 1

loop_
_space_group_symop_operation_xyz
   'x, y, z'

loop_
   _atom_site_label
   _atom_site_occupancy
   _atom_site_fract_x
   _atom_site_fract_y
   _atom_site_fract_z
   _atom_site_adp_type
   _atom_site_U_iso_or_equiv
   _atom_site_type_symbol
   Sm1        1.0     0.334586     0.665414     0.009302    Uiso  ? Sm
   Sm2        1.0     0.663555     0.336445    -0.015864    Uiso  ? Sm
   Sm3        1.0     0.332005     0.667995     0.324119    Uiso  ? Sm
   Sm4        1.0     0.003150    -0.003150     0.349312    Uiso  ? Sm
   Sm5        1.0     0.000375    -0.000375     0.656221    Uiso  ? Sm
   Sm6        1.0     0.666356     0.333644     0.677059    Uiso  ? Sm
   Co1        1.0     0.008066    -0.008066     0.093181    Uiso  ? Co
   Co2        1.0     0.658526     0.341474     0.240031    Uiso  ? Co
   Co3        1.0     0.667377     0.332623     0.430274    Uiso  ? Co
   Co4        1.0     0.333288     0.666712     0.571459    Uiso  ? Co
   Co5        1.0     0.333449     0.666551     0.762055    Uiso  ? Co
   Co6        1.0    -0.000672     0.000672     0.902835    Uiso  ? Co
   Co7        1.0     0.333331     0.166737     0.166562    Uiso  ? Co
   Co8        1.0     0.833263     0.666669     0.166562    Uiso  ? Co
   Co9        1.0    -0.001134     0.503007     0.503077    Uiso  ? Co
   Co10       1.0     0.496993     0.001134     0.503077    Uiso  ? Co
   Co11       1.0     0.499267     0.500733     0.498846    Uiso  ? Co
   Co12       1.0     0.169622     0.332268     0.830187    Uiso  ? Co
   Co13       1.0     0.167439     0.832561     0.834541    Uiso  ? Co
   Co14       1.0     0.667732     0.830378     0.830187    Uiso  ? Co
   Co15       1.0     0.000734     0.711735     0.000046    Uiso  ? Co
   Co16       1.0     0.004805     0.290556    -0.009620    Uiso  ? Co
   Co17       1.0     0.288265    -0.000734     0.000046    Uiso  ? Co
   Co18       1.0     0.284730     0.283841    -0.000757    Uiso  ? Co
   Co19       1.0     0.716159     0.715270    -0.000757    Uiso  ? Co
   Co20       1.0     0.709445    -0.004805    -0.009620    Uiso  ? Co
   Co21       1.0     0.378400     0.334199     0.333261    Uiso  ? Co
   Co22       1.0     0.381943     0.049580     0.333933    Uiso  ? Co
   Co23       1.0     0.661849     0.042529     0.342962    Uiso  ? Co
   Co24       1.0     0.665801     0.621600     0.333261    Uiso  ? Co
   Co25       1.0     0.957471     0.338151     0.342962    Uiso  ? Co
   Co26       1.0     0.950420     0.618057     0.333933    Uiso  ? Co
   Co27       1.0     0.047634     0.667986     0.668089    Uiso  ? Co
   Co28       1.0     0.049396     0.382663     0.666655    Uiso  ? Co
   Co29       1.0     0.332014     0.952366     0.668089    Uiso  ? Co
   Co30       1.0     0.334788     0.380829     0.665385    Uiso  ? Co
   Co31       1.0     0.619171     0.665212     0.665385    Uiso  ? Co
   Co32       1.0     0.617337     0.950604     0.666655    Uiso  ? Co
   Co33       1.0     0.007005     0.513237     0.156096    Uiso  ? Co
   Co34       1.0     0.486763    -0.007005     0.156096    Uiso  ? Co
   Co35       1.0     0.504133     0.495867     0.150647    Uiso  ? Co
   Co36       1.0     0.659739     0.820220     0.177300    Uiso  ? Co
   Co37       1.0     0.179780     0.340261     0.177300    Uiso  ? Co
   Co38       1.0     0.162397     0.837603     0.182597    Uiso  ? Co
   Co39       1.0     0.660809     0.831922     0.489105    Uiso  ? Co
   Co40       1.0     0.168078     0.339191     0.489105    Uiso  ? Co
   Co41       1.0     0.167714     0.832286     0.490049    Uiso  ? Co
   Co42       1.0     0.337606     0.170987     0.512736    Uiso  ? Co
   Co43       1.0     0.829013     0.662394     0.512736    Uiso  ? Co
   Co44       1.0     0.830112     0.169888     0.516293    Uiso  ? Co
   Co45       1.0     0.329140     0.162425     0.820591    Uiso  ? Co
   Co46       1.0     0.837575     0.670860     0.820591    Uiso  ? Co
   Co47       1.0     0.836571     0.163429     0.816953    Uiso  ? Co
   Co48       1.0     0.005704     0.501339     0.844357    Uiso  ? Co
   Co49       1.0     0.498661     0.994296     0.844357    Uiso  ? Co
   Co50       1.0     0.498969     0.501032     0.843489    Uiso  ? Co
   Zr1        1.0     0.833298     0.166702     0.166669    Uiso  ? Zr
