
#======================================================================
# CRYSTAL DATA
#----------------------------------------------------------------------
data_VESTA_phase_1

_chemical_name_common                  'Sm6 Co51                              '
_cell_length_a                         8.311815
_cell_length_b                         8.311856
_cell_length_c                         12.100232
_cell_angle_alpha                      89.999924
_cell_angle_beta                       90.000259
_cell_angle_gamma                      120.000465
_cell_volume                           723.962721
_space_group_name_H-M_alt              'P 1'
_space_group_IT_number                 1

loop_
_space_group_symop_operation_xyz
   'x, y, z'

loop_
   _atom_site_label
   _atom_site_occupancy
   _atom_site_fract_x
   _atom_site_fract_y
   _atom_site_fract_z
   _atom_site_adp_type
   _atom_site_U_iso_or_equiv
   _atom_site_type_symbol
   Sm1        1.0     0.333383     0.666676     0.012343    Uiso  ? Sm
   Sm2        1.0     0.666669     0.333326     0.989426    Uiso  ? Sm
   Sm3        1.0    -0.000032    -0.000006     0.344248    Uiso  ? Sm
   Sm4        1.0    -0.000027     0.000001     0.654727    Uiso  ? Sm
   Sm5        1.0     0.666679     0.333329     0.677305    Uiso  ? Sm
   Co1        1.0     0.999978     0.999991     0.097375    Uiso  ? Co
   Co2        1.0     0.666659     0.333332     0.237685    Uiso  ? Co
   Co3        1.0     0.666666     0.333333     0.428652    Uiso  ? Co
   Co4        1.0     0.333342     0.666671     0.566539    Uiso  ? Co
   Co5        1.0     0.333342     0.666672     0.761344    Uiso  ? Co
   Co6        1.0    -0.000015     0.000000     0.904779    Uiso  ? Co
   Co7        1.0     0.833659     0.166304     0.167475    Uiso  ? Co
   Co8        1.0     0.332656     0.166338     0.167482    Uiso  ? Co
   Co9        1.0     0.833642     0.667348     0.167479    Uiso  ? Co
   Co10       1.0     0.499461     0.500566     0.499114    Uiso  ? Co
   Co11       1.0     0.001096     0.500546     0.499114    Uiso  ? Co
   Co12       1.0     0.499464     0.998899     0.499116    Uiso  ? Co
   Co13       1.0     0.166658     0.333345     0.833426    Uiso  ? Co
   Co14       1.0     0.166670     0.833318     0.833424    Uiso  ? Co
   Co15       1.0     0.666658     0.833343     0.833429    Uiso  ? Co
   Co16       1.0     0.000390     0.713449     0.000918    Uiso  ? Co
   Co17       1.0     0.000391     0.286934     0.000916    Uiso  ? Co
   Co18       1.0     0.286547     0.999597     0.000922    Uiso  ? Co
   Co19       1.0     0.286543     0.286952     0.000926    Uiso  ? Co
   Co20       1.0     0.713046     0.713460     0.000926    Uiso  ? Co
   Co21       1.0     0.713054     0.999596     0.000920    Uiso  ? Co
   Co22       1.0     0.378149     0.336408     0.333077    Uiso  ? Co
   Co23       1.0     0.378151     0.041740     0.333081    Uiso  ? Co
   Co24       1.0     0.663596     0.041731     0.333078    Uiso  ? Co
   Co25       1.0     0.663591     0.621860     0.333074    Uiso  ? Co
   Co26       1.0     0.958253     0.336399     0.333082    Uiso  ? Co
   Co27       1.0     0.958252     0.621852     0.333084    Uiso  ? Co
   Co28       1.0     0.046860     0.667177     0.665833    Uiso  ? Co
   Co29       1.0     0.046853     0.379676     0.665835    Uiso  ? Co
   Co30       1.0     0.332829     0.953139     0.665831    Uiso  ? Co
   Co31       1.0     0.332827     0.379693     0.665830    Uiso  ? Co
   Co32       1.0     0.620324     0.667184     0.665830    Uiso  ? Co
   Co33       1.0     0.620325     0.953144     0.665835    Uiso  ? Co
   Co34       1.0     0.999253     0.499623     0.155655    Uiso  ? Co
   Co35       1.0     0.500390     0.000747     0.155648    Uiso  ? Co
   Co36       1.0     0.500381     0.499639     0.155653    Uiso  ? Co
   Co37       1.0     0.664232     0.832107     0.183025    Uiso  ? Co
   Co38       1.0     0.167896     0.335769     0.183021    Uiso  ? Co
   Co39       1.0     0.167895     0.832121     0.183020    Uiso  ? Co
   Co40       1.0     0.657555     0.828778     0.482989    Uiso  ? Co
   Co41       1.0     0.171224     0.342451     0.482991    Uiso  ? Co
   Co42       1.0     0.171226     0.828774     0.482993    Uiso  ? Co
   Co43       1.0     0.338186     0.169093     0.512437    Uiso  ? Co
   Co44       1.0     0.830904     0.661820     0.512436    Uiso  ? Co
   Co45       1.0     0.830904     0.169086     0.512438    Uiso  ? Co
   Co46       1.0     0.329141     0.164573     0.820699    Uiso  ? Co
   Co47       1.0     0.835420     0.670862     0.820699    Uiso  ? Co
   Co48       1.0     0.835420     0.164563     0.820696    Uiso  ? Co
   Co49       1.0     0.004606     0.502296     0.845768    Uiso  ? Co
   Co50       1.0     0.497710     0.995388     0.845770    Uiso  ? Co
   Co51       1.0     0.497701     0.502318     0.845772    Uiso  ? Co
   Zr1        1.0     0.333364     0.666669     0.324811    Uiso  ? Zr
