
#======================================================================
# CRYSTAL DATA
#----------------------------------------------------------------------
data_VESTA_phase_1

_chemical_name_common                  'Sm2 Co10                              '
_cell_length_a                         5.124527
_cell_length_b                         5.234627
_cell_length_c                         8.085793
_cell_angle_alpha                      90.000000
_cell_angle_beta                       90.000000
_cell_angle_gamma                      120.713303
_cell_volume                           186.477376
_space_group_name_H-M_alt              'P 1'
_space_group_IT_number                 1

loop_
_space_group_symop_operation_xyz
   'x, y, z'

loop_
   _atom_site_label
   _atom_site_occupancy
   _atom_site_fract_x
   _atom_site_fract_y
   _atom_site_fract_z
   _atom_site_adp_type
   _atom_site_U_iso_or_equiv
   _atom_site_type_symbol
   Sm1        1.0     -0.000000     -0.000000    -0.005531    Uiso  ? Sm
   Sm2        1.0     -0.000000     -0.000000     0.505531    Uiso  ? Sm
   Co1        1.0     0.304150     0.652075    -0.005946    Uiso  ? Co
   Co2        1.0     0.695850     0.347925    -0.005946    Uiso  ? Co
   Co3        1.0     0.304150     0.652075     0.505946    Uiso  ? Co
   Co4        1.0     0.695850     0.347925     0.505946    Uiso  ? Co
   Co5        1.0     -0.000000     0.500000     0.750000    Uiso  ? Co
   Zn1        1.0     0.500000     0.500000     0.250000    Uiso  ? Zn
   Zn2        1.0     0.500000     0.500000     0.750000    Uiso  ? Zn
   Zn3        1.0     0.500000     -0.000000     0.250000    Uiso  ? Zn
   Zn4        1.0     0.500000     -0.000000     0.750000    Uiso  ? Zn
   Zn5        1.0     -0.000000     0.500000     0.250000    Uiso  ? Zn
