
#======================================================================
# CRYSTAL DATA
#----------------------------------------------------------------------
data_VESTA_phase_1

_chemical_name_common                  'Sm6 Co51                              '
_cell_length_a                         8.349983
_cell_length_b                         8.349378
_cell_length_c                         12.133957
_cell_angle_alpha                      90.035583
_cell_angle_beta                       89.999840
_cell_angle_gamma                      120.001411
_cell_volume                           732.599298
_space_group_name_H-M_alt              'P 1'
_space_group_IT_number                 1

loop_
_space_group_symop_operation_xyz
   'x, y, z'

loop_
   _atom_site_label
   _atom_site_occupancy
   _atom_site_fract_x
   _atom_site_fract_y
   _atom_site_fract_z
   _atom_site_adp_type
   _atom_site_U_iso_or_equiv
   _atom_site_type_symbol
   Sm1        1.0     0.333532     0.666832     0.011312    Uiso  ? Sm
   Sm2        1.0     0.665958     0.333406    -0.011075    Uiso  ? Sm
   Sm3        1.0     0.333618     0.674378     0.321524    Uiso  ? Sm
   Sm4        1.0    -0.007432    -0.007710     0.344912    Uiso  ? Sm
   Sm5        1.0     0.000019    -0.000227     0.655632    Uiso  ? Sm
   Sm6        1.0     0.665978     0.333306     0.677677    Uiso  ? Sm
   Co1        1.0     0.000345     0.000509     0.095856    Uiso  ? Co
   Co2        1.0     0.671481     0.333377     0.236635    Uiso  ? Co
   Co3        1.0     0.671393     0.333296     0.430097    Uiso  ? Co
   Co4        1.0     0.333070     0.665984     0.570673    Uiso  ? Co
   Co5        1.0     0.333263     0.666391     0.762490    Uiso  ? Co
   Co6        1.0     0.000176     0.000208     0.904127    Uiso  ? Co
   Co7        1.0     0.833252     0.166055     0.166620    Uiso  ? Co
   Co8        1.0     0.330725     0.165459     0.166285    Uiso  ? Co
   Co9        1.0     0.832721     0.665701     0.166001    Uiso  ? Co
   Co10       1.0     0.498591     0.501351     0.500323    Uiso  ? Co
   Co11       1.0     0.000677     0.500745     0.499996    Uiso  ? Co
   Co12       1.0     0.500435     0.001042     0.500691    Uiso  ? Co
   Co13       1.0     0.166547     0.333370     0.833417    Uiso  ? Co
   Co14       1.0     0.166187     0.833412     0.833122    Uiso  ? Co
   Co15       1.0     0.665980     0.833143     0.833724    Uiso  ? Co
   Co16       1.0     0.000253     0.713332    -0.000215    Uiso  ? Co
   Co17       1.0    -0.000326     0.286509    -0.000078    Uiso  ? Co
   Co18       1.0     0.286788    -0.000586    -0.000154    Uiso  ? Co
   Co19       1.0     0.286019     0.286403     0.000038    Uiso  ? Co
   Co20       1.0     0.714972     0.714925    -0.000315    Uiso  ? Co
   Co21       1.0     0.713545     0.000501    -0.000129    Uiso  ? Co
   Co22       1.0     0.381494     0.049993     0.334040    Uiso  ? Co
   Co23       1.0     0.667904     0.049545     0.333723    Uiso  ? Co
   Co24       1.0     0.664906     0.616712     0.332651    Uiso  ? Co
   Co25       1.0     0.958069     0.333277     0.333397    Uiso  ? Co
   Co26       1.0     0.951650     0.617138     0.332980    Uiso  ? Co
   Co27       1.0     0.046558     0.666222     0.666806    Uiso  ? Co
   Co28       1.0     0.046680     0.380210     0.666725    Uiso  ? Co
   Co29       1.0     0.333324     0.951664     0.667006    Uiso  ? Co
   Co30       1.0     0.332930     0.380300     0.666633    Uiso  ? Co
   Co31       1.0     0.620570     0.667272     0.666844    Uiso  ? Co
   Co32       1.0     0.620087     0.953106     0.666903    Uiso  ? Co
   Co33       1.0     0.995160     0.497482     0.153421    Uiso  ? Co
   Co34       1.0     0.502431     0.006262     0.153689    Uiso  ? Co
   Co35       1.0     0.501724     0.498878     0.151813    Uiso  ? Co
   Co36       1.0     0.670569     0.835160     0.179305    Uiso  ? Co
   Co37       1.0     0.163279     0.328938     0.179068    Uiso  ? Co
   Co38       1.0     0.163403     0.835693     0.179615    Uiso  ? Co
   Co39       1.0     0.661153     0.831033     0.486913    Uiso  ? Co
   Co40       1.0     0.167728     0.337731     0.487372    Uiso  ? Co
   Co41       1.0     0.168819     0.831578     0.487169    Uiso  ? Co
   Co42       1.0     0.336141     0.167789     0.514903    Uiso  ? Co
   Co43       1.0     0.829665     0.660636     0.513080    Uiso  ? Co
   Co44       1.0     0.831237     0.169105     0.513423    Uiso  ? Co
   Co45       1.0     0.328572     0.164437     0.820687    Uiso  ? Co
   Co46       1.0     0.835285     0.671127     0.820640    Uiso  ? Co
   Co47       1.0     0.835415     0.164283     0.820293    Uiso  ? Co
   Co48       1.0     0.004654     0.502432     0.846384    Uiso  ? Co
   Co49       1.0     0.497338     0.995254     0.846035    Uiso  ? Co
   Co50       1.0     0.497315     0.502320     0.845959    Uiso  ? Co
   V1         1.0     0.388170     0.333311     0.333336    Uiso  ? V
