
#======================================================================
# CRYSTAL DATA
#----------------------------------------------------------------------
data_VESTA_phase_1

_chemical_name_common                  'Sm6 Co51                              '
_cell_length_a                         8.356028
_cell_length_b                         8.356028
_cell_length_c                         12.157171
_cell_angle_alpha                      89.947266
_cell_angle_beta                       90.052734
_cell_angle_gamma                      120.266098
_cell_volume                           733.148396
_space_group_name_H-M_alt              'P 1'
_space_group_IT_number                 1

loop_
_space_group_symop_operation_xyz
   'x, y, z'

loop_
   _atom_site_label
   _atom_site_occupancy
   _atom_site_fract_x
   _atom_site_fract_y
   _atom_site_fract_z
   _atom_site_adp_type
   _atom_site_U_iso_or_equiv
   _atom_site_type_symbol
   Sm1        1.0     0.329199     0.670801     0.008313    Uiso  ? Sm
   Sm2        1.0     0.670563     0.329437    -0.014186    Uiso  ? Sm
   Sm3        1.0     0.331307     0.668693     0.324921    Uiso  ? Sm
   Sm4        1.0    -0.000597     0.000597     0.343546    Uiso  ? Sm
   Sm5        1.0     0.000204    -0.000204     0.655718    Uiso  ? Sm
   Sm6        1.0     0.666605     0.333395     0.677263    Uiso  ? Sm
   Co1        1.0     0.000070    -0.000070     0.095984    Uiso  ? Co
   Co2        1.0     0.667606     0.332394     0.236878    Uiso  ? Co
   Co3        1.0     0.666449     0.333551     0.429068    Uiso  ? Co
   Co4        1.0     0.333516     0.666484     0.570908    Uiso  ? Co
   Co5        1.0     0.333573     0.666427     0.762273    Uiso  ? Co
   Co6        1.0     0.000200    -0.000200     0.904142    Uiso  ? Co
   Co7        1.0     0.833894     0.166106     0.166509    Uiso  ? Co
   Co8        1.0     0.332892     0.165618     0.165983    Uiso  ? Co
   Co9        1.0     0.834382     0.667108     0.165983    Uiso  ? Co
   Co10       1.0     0.499918     0.500082     0.500599    Uiso  ? Co
   Co11       1.0    -0.000216     0.499976     0.499813    Uiso  ? Co
   Co12       1.0     0.500024     0.000216     0.499813    Uiso  ? Co
   Co13       1.0     0.166425     0.333311     0.833320    Uiso  ? Co
   Co14       1.0     0.166418     0.833582     0.832635    Uiso  ? Co
   Co15       1.0     0.666689     0.833575     0.833320    Uiso  ? Co
   Co16       1.0    -0.001239     0.714826    -0.000677    Uiso  ? Co
   Co17       1.0     0.001806     0.285276     0.000420    Uiso  ? Co
   Co18       1.0     0.285174     0.001239    -0.000677    Uiso  ? Co
   Co19       1.0     0.289538     0.289140    -0.000820    Uiso  ? Co
   Co20       1.0     0.710860     0.710462    -0.000820    Uiso  ? Co
   Co21       1.0     0.714724    -0.001806     0.000420    Uiso  ? Co
   Co22       1.0     0.379217     0.331797     0.335722    Uiso  ? Co
   Co23       1.0     0.379565     0.047191     0.333419    Uiso  ? Co
   Co24       1.0     0.666252     0.046915     0.333135    Uiso  ? Co
   Co25       1.0     0.668203     0.620782     0.335722    Uiso  ? Co
   Co26       1.0     0.953085     0.333748     0.333135    Uiso  ? Co
   Co27       1.0     0.952809     0.620435     0.333419    Uiso  ? Co
   Co28       1.0     0.047366     0.666309     0.666350    Uiso  ? Co
   Co29       1.0     0.046305     0.379556     0.666463    Uiso  ? Co
   Co30       1.0     0.333691     0.952634     0.666350    Uiso  ? Co
   Co31       1.0     0.333028     0.380436     0.667217    Uiso  ? Co
   Co32       1.0     0.619564     0.666972     0.667217    Uiso  ? Co
   Co33       1.0     0.620444     0.953695     0.666463    Uiso  ? Co
   Co34       1.0     0.995584     0.497450     0.154444    Uiso  ? Co
   Co35       1.0     0.502550     0.004416     0.154444    Uiso  ? Co
   Co36       1.0     0.667610     0.833168     0.178801    Uiso  ? Co
   Co37       1.0     0.166832     0.332390     0.178801    Uiso  ? Co
   Co38       1.0     0.164472     0.835528     0.179814    Uiso  ? Co
   Co39       1.0     0.661846     0.831249     0.487493    Uiso  ? Co
   Co40       1.0     0.168751     0.338154     0.487493    Uiso  ? Co
   Co41       1.0     0.168667     0.831333     0.487338    Uiso  ? Co
   Co42       1.0     0.338353     0.169153     0.513858    Uiso  ? Co
   Co43       1.0     0.830847     0.661647     0.513858    Uiso  ? Co
   Co44       1.0     0.830914     0.169087     0.512383    Uiso  ? Co
   Co45       1.0     0.329122     0.164917     0.820123    Uiso  ? Co
   Co46       1.0     0.835083     0.670878     0.820123    Uiso  ? Co
   Co47       1.0     0.835956     0.164044     0.820421    Uiso  ? Co
   Co48       1.0     0.004554     0.502188     0.845040    Uiso  ? Co
   Co49       1.0     0.497812     0.995446     0.845040    Uiso  ? Co
   Co50       1.0     0.497639     0.502361     0.847276    Uiso  ? Co
   V1         1.0     0.503896     0.496104     0.157993    Uiso  ? V
