
#======================================================================
# CRYSTAL DATA
#----------------------------------------------------------------------
data_VESTA_phase_1

_chemical_name_common                  'Sm9 Co27                              '
_cell_length_a                         5.098942
_cell_length_b                         4.974172
_cell_length_c                         24.746424
_cell_angle_alpha                      89.702263
_cell_angle_beta                       90.000015
_cell_angle_gamma                      120.833305
_cell_volume                           538.924161
_space_group_name_H-M_alt              'P 1'
_space_group_IT_number                 1

loop_
_space_group_symop_operation_xyz
   'x, y, z'

loop_
   _atom_site_label
   _atom_site_occupancy
   _atom_site_fract_x
   _atom_site_fract_y
   _atom_site_fract_z
   _atom_site_adp_type
   _atom_site_U_iso_or_equiv
   _atom_site_type_symbol
   Sm1        1.0     0.000151     0.000301     0.999862    Uiso  ? Sm
   Sm2        1.0     0.664138     0.328275     0.331809    Uiso  ? Sm
   Sm3        1.0     0.335454     0.670908     0.667504    Uiso  ? Sm
   Sm4        1.0     0.665214     0.330427     0.192983    Uiso  ? Sm
   Sm5        1.0     0.000641     0.001283     0.139363    Uiso  ? Sm
   Sm6        1.0     0.340752     0.681504     0.527743    Uiso  ? Sm
   Sm7        1.0     0.673856     0.347711     0.475630    Uiso  ? Sm
   Sm8        1.0     0.998962     0.997922     0.860631    Uiso  ? Sm
   Sm9        1.0     0.334582     0.669163     0.806979    Uiso  ? Sm
   Co1        1.0     0.332234     0.664469     0.164918    Uiso  ? Co
   Co2        1.0     0.011047     0.022094     0.501100    Uiso  ? Co
   Co3        1.0     0.666784     0.333568     0.834056    Uiso  ? Co
   Co4        1.0     0.323979     0.647957     0.332647    Uiso  ? Co
   Co5        1.0     0.340822     0.681643     0.000627    Uiso  ? Co
   Co6        1.0     0.995940     0.991879     0.667681    Uiso  ? Co
   Co7        1.0     0.002118     0.004236     0.330261    Uiso  ? Co
   Co8        1.0     0.659375     0.318750     0.998886    Uiso  ? Co
   Co9        1.0     0.675093     0.350189     0.668412    Uiso  ? Co
   Co10       1.0     0.660188     0.827279     0.252211    Uiso  ? Co
   Co11       1.0     0.166380     0.332759     0.251208    Uiso  ? Co
   Co12       1.0     0.167091     0.827278     0.252211    Uiso  ? Co
   Co13       1.0     0.999445     0.500987     0.079009    Uiso  ? Co
   Co14       1.0     0.499908    -0.000183     0.080721    Uiso  ? Co
   Co15       1.0     0.501542     0.500987     0.079009    Uiso  ? Co
   Co16       1.0     0.334444     0.175260     0.588393    Uiso  ? Co
   Co17       1.0     0.837010     0.674020     0.587650    Uiso  ? Co
   Co18       1.0     0.840815     0.175259     0.588393    Uiso  ? Co
   Co19       1.0     0.655679     0.825897     0.411984    Uiso  ? Co
   Co20       1.0     0.170218     0.825897     0.411984    Uiso  ? Co
   Co21       1.0     0.000878     0.499424     0.920577    Uiso  ? Co
   Co22       1.0     0.500635     0.001270     0.918790    Uiso  ? Co
   Co23       1.0     0.498545     0.499424     0.920577    Uiso  ? Co
   Co24       1.0     0.334763     0.169421     0.747267    Uiso  ? Co
   Co25       1.0     0.833443     0.666886     0.748877    Uiso  ? Co
   Co26       1.0     0.834657     0.169422     0.747267    Uiso  ? Co
   V1         1.0     0.143217     0.286435     0.412778    Uiso  ? V
