
#======================================================================
# CRYSTAL DATA
#----------------------------------------------------------------------
data_VESTA_phase_1

_chemical_name_common                  'Sm9 Co27                              '
_cell_length_a                         5.035576
_cell_length_b                         5.035576
_cell_length_c                         24.604176
_cell_angle_alpha                      90.000000
_cell_angle_beta                       90.000000
_cell_angle_gamma                      120.000000
_cell_volume                           540.303547
_space_group_name_H-M_alt              'P 1'
_space_group_IT_number                 1

loop_
_space_group_symop_operation_xyz
   'x, y, z'

loop_
   _atom_site_label
   _atom_site_occupancy
   _atom_site_fract_x
   _atom_site_fract_y
   _atom_site_fract_z
   _atom_site_adp_type
   _atom_site_U_iso_or_equiv
   _atom_site_type_symbol
   Sm1        1.0     0.000000     -0.000000     0.000424    Uiso  ? Sm
   Sm2        1.0     0.666667     0.333333     0.333333    Uiso  ? Sm
   Sm3        1.0     0.333333     0.666667     0.666243    Uiso  ? Sm
   Sm4        1.0     0.666667     0.333333     0.193356    Uiso  ? Sm
   Sm5        1.0     0.000000     -0.000000     0.139900    Uiso  ? Sm
   Sm6        1.0     0.333333     0.666667     0.526767    Uiso  ? Sm
   Sm7        1.0     0.666667     0.333333     0.473311    Uiso  ? Sm
   Sm8        1.0     0.000000     0.000000     0.861929    Uiso  ? Sm
   Sm9        1.0     0.333333     0.666667     0.804738    Uiso  ? Sm
   Co1        1.0     0.333333     0.666667     0.167071    Uiso  ? Co
   Co2        1.0     0.000000     -0.000000     0.499595    Uiso  ? Co
   Co3        1.0     0.333333     0.666667     0.332252    Uiso  ? Co
   Co4        1.0     0.333333     0.666667     0.001368    Uiso  ? Co
   Co5        1.0     0.000000     -0.000000     0.665299    Uiso  ? Co
   Co6        1.0     0.000000     -0.000000     0.334415    Uiso  ? Co
   Co7        1.0     0.666667     0.333333     0.998975    Uiso  ? Co
   Co8        1.0     0.666667     0.333333     0.667692    Uiso  ? Co
   Co9        1.0     0.667033     0.833517     0.253187    Uiso  ? Co
   Co10       1.0     0.166483     0.332967     0.253187    Uiso  ? Co
   Co11       1.0     0.166483     0.833517     0.253187    Uiso  ? Co
   Co12       1.0     0.000519     0.500259     0.080386    Uiso  ? Co
   Co13       1.0     0.499741     0.999481     0.080386    Uiso  ? Co
   Co14       1.0     0.499741     0.500259     0.080386    Uiso  ? Co
   Co15       1.0     0.332815     0.166407     0.586281    Uiso  ? Co
   Co16       1.0     0.833593     0.667185     0.586281    Uiso  ? Co
   Co17       1.0     0.833593     0.166407     0.586281    Uiso  ? Co
   Co18       1.0     0.666300     0.833150     0.413479    Uiso  ? Co
   Co19       1.0     0.166850     0.333700     0.413479    Uiso  ? Co
   Co20       1.0     0.166850     0.833150     0.413479    Uiso  ? Co
   Co21       1.0     0.003101     0.501550     0.919809    Uiso  ? Co
   Co22       1.0     0.498450    -0.003101     0.919809    Uiso  ? Co
   Co23       1.0     0.498450     0.501550     0.919809    Uiso  ? Co
   Co24       1.0     0.330232     0.165116     0.746858    Uiso  ? Co
   Co25       1.0     0.834884     0.669768     0.746858    Uiso  ? Co
   Co26       1.0     0.834884     0.165116     0.746858    Uiso  ? Co
   V1         1.0     0.666667     0.333333     0.833333    Uiso  ? V
