
#======================================================================
# CRYSTAL DATA
#----------------------------------------------------------------------
data_VESTA_phase_1

_chemical_name_common                  'Sm6 Co51                              '
_cell_length_a                         8.342377
_cell_length_b                         8.342377
_cell_length_c                         12.144707
_cell_angle_alpha                      90.000000
_cell_angle_beta                       90.000000
_cell_angle_gamma                      120.000000
_cell_volume                           731.976701
_space_group_name_H-M_alt              'P 1'
_space_group_IT_number                 1

loop_
_space_group_symop_operation_xyz
   'x, y, z'

loop_
   _atom_site_label
   _atom_site_occupancy
   _atom_site_fract_x
   _atom_site_fract_y
   _atom_site_fract_z
   _atom_site_adp_type
   _atom_site_U_iso_or_equiv
   _atom_site_type_symbol
   Sm1        1.0     0.333333     0.666667     0.011956    Uiso  ? Sm
   Sm2        1.0     0.666667     0.333333    -0.016214    Uiso  ? Sm
   Sm3        1.0     0.333333     0.666667     0.321920    Uiso  ? Sm
   Sm4        1.0     0.000000     0.000000     0.344356    Uiso  ? Sm
   Sm5        1.0     0.000000     0.000000     0.655697    Uiso  ? Sm
   Sm6        1.0     0.666667     0.333333     0.676283    Uiso  ? Sm
   Co1        1.0     0.000000     0.000000     0.095188    Uiso  ? Co
   Co2        1.0     0.666667     0.333333     0.427934    Uiso  ? Co
   Co3        1.0     0.333333     0.666667     0.570874    Uiso  ? Co
   Co4        1.0     0.333333     0.666667     0.762724    Uiso  ? Co
   Co5        1.0     0.000000     0.000000     0.903975    Uiso  ? Co
   Co6        1.0     0.833511     0.166489     0.166185    Uiso  ? Co
   Co7        1.0     0.332976     0.166489     0.166185    Uiso  ? Co
   Co8        1.0     0.833511     0.667023     0.166185    Uiso  ? Co
   Co9        1.0     0.499763     0.500237     0.499840    Uiso  ? Co
   Co10       1.0     0.000474     0.500237     0.499840    Uiso  ? Co
   Co11       1.0     0.499763    -0.000474     0.499840    Uiso  ? Co
   Co12       1.0     0.166482     0.332963     0.833443    Uiso  ? Co
   Co13       1.0     0.166482     0.833518     0.833443    Uiso  ? Co
   Co14       1.0     0.667037     0.833518     0.833443    Uiso  ? Co
   Co15       1.0     0.000142     0.713424     0.000213    Uiso  ? Co
   Co16       1.0     0.000142     0.286718     0.000213    Uiso  ? Co
   Co17       1.0     0.286576    -0.000142     0.000213    Uiso  ? Co
   Co18       1.0     0.286576     0.286718     0.000213    Uiso  ? Co
   Co19       1.0     0.713282     0.713424     0.000213    Uiso  ? Co
   Co20       1.0     0.713282    -0.000142     0.000213    Uiso  ? Co
   Co21       1.0     0.377190     0.333309     0.333643    Uiso  ? Co
   Co22       1.0     0.377190     0.043880     0.333643    Uiso  ? Co
   Co23       1.0     0.666691     0.043880     0.333643    Uiso  ? Co
   Co24       1.0     0.666691     0.622810     0.333643    Uiso  ? Co
   Co25       1.0     0.956120     0.333309     0.333643    Uiso  ? Co
   Co26       1.0     0.956120     0.622810     0.333643    Uiso  ? Co
   Co27       1.0     0.046725     0.666440     0.667086    Uiso  ? Co
   Co28       1.0     0.046725     0.380286     0.667086    Uiso  ? Co
   Co29       1.0     0.333560     0.953275     0.667086    Uiso  ? Co
   Co30       1.0     0.333560     0.380286     0.667086    Uiso  ? Co
   Co31       1.0     0.619714     0.666440     0.667086    Uiso  ? Co
   Co32       1.0     0.619714     0.953275     0.667086    Uiso  ? Co
   Co33       1.0     0.994551     0.497276     0.152518    Uiso  ? Co
   Co34       1.0     0.502724     0.005449     0.152518    Uiso  ? Co
   Co35       1.0     0.502724     0.497276     0.152518    Uiso  ? Co
   Co36       1.0     0.672336     0.836168     0.179766    Uiso  ? Co
   Co37       1.0     0.163833     0.327664     0.179766    Uiso  ? Co
   Co38       1.0     0.163833     0.836168     0.179766    Uiso  ? Co
   Co39       1.0     0.662253     0.831126     0.488521    Uiso  ? Co
   Co40       1.0     0.168874     0.337747     0.488521    Uiso  ? Co
   Co41       1.0     0.168874     0.831126     0.488521    Uiso  ? Co
   Co42       1.0     0.337632     0.168816     0.512271    Uiso  ? Co
   Co43       1.0     0.831184     0.662368     0.512271    Uiso  ? Co
   Co44       1.0     0.831184     0.168816     0.512271    Uiso  ? Co
   Co45       1.0     0.328581     0.164291     0.820383    Uiso  ? Co
   Co46       1.0     0.835709     0.671419     0.820383    Uiso  ? Co
   Co47       1.0     0.835709     0.164291     0.820383    Uiso  ? Co
   Co48       1.0     0.005391     0.502696     0.846279    Uiso  ? Co
   Co49       1.0     0.497304     0.994609     0.846279    Uiso  ? Co
   Co50       1.0     0.497304     0.502696     0.846279    Uiso  ? Co
   V1         1.0     0.666667     0.333333     0.242040    Uiso  ? V
