
#======================================================================
# CRYSTAL DATA
#----------------------------------------------------------------------
data_VESTA_phase_1

_chemical_name_common                  'Sm9 Co27                              '
_cell_length_a                         5.039541
_cell_length_b                         5.039541
_cell_length_c                         24.437353
_cell_angle_alpha                      90.000000
_cell_angle_beta                       90.000000
_cell_angle_gamma                      120.000000
_cell_volume                           537.485564
_space_group_name_H-M_alt              'P 1'
_space_group_IT_number                 1

loop_
_space_group_symop_operation_xyz
   'x, y, z'

loop_
   _atom_site_label
   _atom_site_occupancy
   _atom_site_fract_x
   _atom_site_fract_y
   _atom_site_fract_z
   _atom_site_adp_type
   _atom_site_U_iso_or_equiv
   _atom_site_type_symbol
   Sm1        1.0     0.000000     0.000000     0.998906    Uiso  ? Sm
   Sm2        1.0     0.666667     0.333333     0.333844    Uiso  ? Sm
   Sm3        1.0     0.333333     0.666667     0.667180    Uiso  ? Sm
   Sm4        1.0     0.666667     0.333333     0.193387    Uiso  ? Sm
   Sm5        1.0     0.000000     0.000000     0.139606    Uiso  ? Sm
   Sm6        1.0     0.333333     0.666667     0.528476    Uiso  ? Sm
   Sm7        1.0     0.666667     0.333333     0.474537    Uiso  ? Sm
   Sm8        1.0     0.000000     0.000000     0.858128    Uiso  ? Sm
   Sm9        1.0     0.333333     0.666667     0.805112    Uiso  ? Sm
   Co1        1.0     0.333333     0.666667     0.166406    Uiso  ? Co
   Co2        1.0     0.000000     0.000000     0.500639    Uiso  ? Co
   Co3        1.0     0.666667     0.333333     0.832545    Uiso  ? Co
   Co4        1.0     0.333333     0.666667     0.332874    Uiso  ? Co
   Co5        1.0     0.333333     0.666667     0.000143    Uiso  ? Co
   Co6        1.0     0.000000     0.000000     0.666942    Uiso  ? Co
   Co7        1.0     0.000000     0.000000     0.334225    Uiso  ? Co
   Co8        1.0     0.666667     0.333333     0.998858    Uiso  ? Co
   Co9        1.0     0.666347     0.833173     0.253157    Uiso  ? Co
   Co10       1.0     0.166827     0.333653     0.253157    Uiso  ? Co
   Co11       1.0     0.166827     0.833173     0.253157    Uiso  ? Co
   Co12       1.0     0.000415     0.500208     0.079907    Uiso  ? Co
   Co13       1.0     0.499792     0.999585     0.079907    Uiso  ? Co
   Co14       1.0     0.499792     0.500208     0.079907    Uiso  ? Co
   Co15       1.0     0.329785     0.164893     0.587551    Uiso  ? Co
   Co16       1.0     0.835107     0.670215     0.587551    Uiso  ? Co
   Co17       1.0     0.835107     0.164893     0.587551    Uiso  ? Co
   Co18       1.0     0.666594     0.833297     0.414143    Uiso  ? Co
   Co19       1.0     0.166703     0.333406     0.414143    Uiso  ? Co
   Co20       1.0     0.166703     0.833297     0.414143    Uiso  ? Co
   Co21       1.0     0.999964     0.499982     0.918909    Uiso  ? Co
   Co22       1.0     0.500018     0.000036     0.918909    Uiso  ? Co
   Co23       1.0     0.500018     0.499982     0.918909    Uiso  ? Co
   Co24       1.0     0.333984     0.166992     0.746071    Uiso  ? Co
   Co25       1.0     0.833008     0.666016     0.746071    Uiso  ? Co
   Co26       1.0     0.833008     0.166992     0.746071    Uiso  ? Co
   V1         1.0     0.666667     0.333333     0.668979    Uiso  ? V
