
#======================================================================
# CRYSTAL DATA
#----------------------------------------------------------------------
data_VESTA_phase_1

_chemical_name_common                  'Sm6 Co51                              '
_cell_length_a                         8.356435
_cell_length_b                         8.356435
_cell_length_c                         12.139089
_cell_angle_alpha                      90.037209
_cell_angle_beta                       89.962791
_cell_angle_gamma                      120.210258
_cell_volume                           732.545503
_space_group_name_H-M_alt              'P 1'
_space_group_IT_number                 1

loop_
_space_group_symop_operation_xyz
   'x, y, z'

loop_
   _atom_site_label
   _atom_site_occupancy
   _atom_site_fract_x
   _atom_site_fract_y
   _atom_site_fract_z
   _atom_site_adp_type
   _atom_site_U_iso_or_equiv
   _atom_site_type_symbol
   Sm1        1.0     0.333271     0.666729     0.011846    Uiso  ? Sm
   Sm2        1.0     0.665119     0.334881    -0.013610    Uiso  ? Sm
   Sm3        1.0     0.333391     0.666609     0.321481    Uiso  ? Sm
   Sm4        1.0     0.001578    -0.001578     0.346759    Uiso  ? Sm
   Sm5        1.0     0.000122    -0.000122     0.655937    Uiso  ? Sm
   Sm6        1.0     0.666526     0.333474     0.677555    Uiso  ? Sm
   Co1        1.0     0.001862    -0.001862     0.096043    Uiso  ? Co
   Co2        1.0     0.664861     0.335139     0.237362    Uiso  ? Co
   Co3        1.0     0.666987     0.333013     0.429338    Uiso  ? Co
   Co4        1.0     0.333346     0.666654     0.570481    Uiso  ? Co
   Co5        1.0     0.333328     0.666672     0.762614    Uiso  ? Co
   Co6        1.0    -0.000287     0.000287     0.904164    Uiso  ? Co
   Co7        1.0     0.333365     0.166663     0.166611    Uiso  ? Co
   Co8        1.0     0.833337     0.666635     0.166611    Uiso  ? Co
   Co9        1.0    -0.000210     0.500059     0.500376    Uiso  ? Co
   Co10       1.0     0.499941     0.000210     0.500376    Uiso  ? Co
   Co11       1.0     0.500107     0.499893     0.499749    Uiso  ? Co
   Co12       1.0     0.166695     0.333189     0.833072    Uiso  ? Co
   Co13       1.0     0.166579     0.833421     0.833588    Uiso  ? Co
   Co14       1.0     0.666811     0.833305     0.833072    Uiso  ? Co
   Co15       1.0    -0.000190     0.713551     0.000117    Uiso  ? Co
   Co16       1.0     0.000138     0.286896    -0.000883    Uiso  ? Co
   Co17       1.0     0.286449     0.000190     0.000117    Uiso  ? Co
   Co18       1.0     0.285513     0.286371     0.000326    Uiso  ? Co
   Co19       1.0     0.713629     0.714487     0.000326    Uiso  ? Co
   Co20       1.0     0.713104    -0.000138    -0.000883    Uiso  ? Co
   Co21       1.0     0.380288     0.333087     0.333204    Uiso  ? Co
   Co22       1.0     0.381229     0.047027     0.333004    Uiso  ? Co
   Co23       1.0     0.666524     0.046478     0.334280    Uiso  ? Co
   Co24       1.0     0.666913     0.619712     0.333204    Uiso  ? Co
   Co25       1.0     0.953522     0.333476     0.334280    Uiso  ? Co
   Co26       1.0     0.952973     0.618771     0.333004    Uiso  ? Co
   Co27       1.0     0.047147     0.666667     0.666915    Uiso  ? Co
   Co28       1.0     0.047190     0.380505     0.666650    Uiso  ? Co
   Co29       1.0     0.333333     0.952853     0.666915    Uiso  ? Co
   Co30       1.0     0.333239     0.380482     0.666390    Uiso  ? Co
   Co31       1.0     0.619518     0.666761     0.666390    Uiso  ? Co
   Co32       1.0     0.619495     0.952810     0.666650    Uiso  ? Co
   Co33       1.0     0.993850     0.498112     0.152922    Uiso  ? Co
   Co34       1.0     0.501888     0.006150     0.152922    Uiso  ? Co
   Co35       1.0     0.502803     0.497197     0.152307    Uiso  ? Co
   Co36       1.0     0.672794     0.835201     0.180441    Uiso  ? Co
   Co37       1.0     0.164799     0.327206     0.180441    Uiso  ? Co
   Co38       1.0     0.163895     0.836105     0.181080    Uiso  ? Co
   Co39       1.0     0.662210     0.831077     0.487251    Uiso  ? Co
   Co40       1.0     0.168923     0.337790     0.487251    Uiso  ? Co
   Co41       1.0     0.169226     0.830774     0.487649    Uiso  ? Co
   Co42       1.0     0.338156     0.168993     0.512978    Uiso  ? Co
   Co43       1.0     0.831007     0.661844     0.512978    Uiso  ? Co
   Co44       1.0     0.830945     0.169055     0.512748    Uiso  ? Co
   Co45       1.0     0.328452     0.164326     0.820474    Uiso  ? Co
   Co46       1.0     0.835674     0.671548     0.820474    Uiso  ? Co
   Co47       1.0     0.835664     0.164336     0.820719    Uiso  ? Co
   Co48       1.0     0.004601     0.502346     0.845892    Uiso  ? Co
   Co49       1.0     0.497654     0.995399     0.845892    Uiso  ? Co
   Co50       1.0     0.497390     0.502610     0.845512    Uiso  ? Co
   V1         1.0     0.833323     0.166677     0.166637    Uiso  ? V
