
#======================================================================
# CRYSTAL DATA
#----------------------------------------------------------------------
data_VESTA_phase_1

_chemical_name_common                  'Sm6 Co51                              '
_cell_length_a                         8.300314
_cell_length_b                         8.300009
_cell_length_c                         12.084018
_cell_angle_alpha                      89.998848
_cell_angle_beta                       89.999428
_cell_angle_gamma                      120.000641
_cell_volume                           720.961797
_space_group_name_H-M_alt              'P 1'
_space_group_IT_number                 1

loop_
_space_group_symop_operation_xyz
   'x, y, z'

loop_
   _atom_site_label
   _atom_site_occupancy
   _atom_site_fract_x
   _atom_site_fract_y
   _atom_site_fract_z
   _atom_site_adp_type
   _atom_site_U_iso_or_equiv
   _atom_site_type_symbol
   Sm1        1.0     0.333322     0.666653     0.012585    Uiso  ? Sm
   Sm2        1.0     0.666675     0.333343    -0.011318    Uiso  ? Sm
   Sm3        1.0    -0.000001    -0.000001     0.344631    Uiso  ? Sm
   Sm4        1.0     0.000004     0.000005     0.654859    Uiso  ? Sm
   Sm5        1.0     0.666664     0.333334     0.676807    Uiso  ? Sm
   Co1        1.0     0.000000     0.000002     0.097932    Uiso  ? Co
   Co2        1.0     0.666662     0.333326     0.237301    Uiso  ? Co
   Co3        1.0     0.666666     0.333332     0.428172    Uiso  ? Co
   Co4        1.0     0.333328     0.666667     0.564476    Uiso  ? Co
   Co5        1.0     0.333341     0.666677     0.761271    Uiso  ? Co
   Co6        1.0     0.000003     0.000005     0.904801    Uiso  ? Co
   Co7        1.0     0.834552     0.165480     0.168156    Uiso  ? Co
   Co8        1.0     0.330926     0.165471     0.168154    Uiso  ? Co
   Co9        1.0     0.834543     0.669067     0.168153    Uiso  ? Co
   Co10       1.0     0.499691     0.500307     0.499099    Uiso  ? Co
   Co11       1.0     0.000615     0.500307     0.499100    Uiso  ? Co
   Co12       1.0     0.499689    -0.000619     0.499104    Uiso  ? Co
   Co13       1.0     0.166654     0.333320     0.833350    Uiso  ? Co
   Co14       1.0     0.166648     0.833331     0.833346    Uiso  ? Co
   Co15       1.0     0.666682     0.833336     0.833346    Uiso  ? Co
   Co16       1.0     0.000803     0.713857     0.001401    Uiso  ? Co
   Co17       1.0     0.000809     0.286954     0.001406    Uiso  ? Co
   Co18       1.0     0.286132    -0.000807     0.001400    Uiso  ? Co
   Co19       1.0     0.286140     0.286950     0.001404    Uiso  ? Co
   Co20       1.0     0.713066     0.713855     0.001398    Uiso  ? Co
   Co21       1.0     0.713062    -0.000802     0.001397    Uiso  ? Co
   Co22       1.0     0.377755     0.338630     0.332449    Uiso  ? Co
   Co23       1.0     0.377755     0.039113     0.332452    Uiso  ? Co
   Co24       1.0     0.661357     0.039110     0.332459    Uiso  ? Co
   Co25       1.0     0.661357     0.622241     0.332449    Uiso  ? Co
   Co26       1.0     0.960864     0.338625     0.332452    Uiso  ? Co
   Co27       1.0     0.960874     0.622241     0.332449    Uiso  ? Co
   Co28       1.0     0.046482     0.667447     0.665398    Uiso  ? Co
   Co29       1.0     0.046483     0.379038     0.665399    Uiso  ? Co
   Co30       1.0     0.332550     0.953515     0.665397    Uiso  ? Co
   Co31       1.0     0.332550     0.379042     0.665397    Uiso  ? Co
   Co32       1.0     0.620965     0.667446     0.665397    Uiso  ? Co
   Co33       1.0     0.620969     0.953523     0.665396    Uiso  ? Co
   Co34       1.0    -0.003088     0.498453     0.153958    Uiso  ? Co
   Co35       1.0     0.501577     0.003137     0.153930    Uiso  ? Co
   Co36       1.0     0.501559     0.498438     0.153934    Uiso  ? Co
   Co37       1.0     0.659048     0.829517     0.185490    Uiso  ? Co
   Co38       1.0     0.170469     0.340943     0.185480    Uiso  ? Co
   Co39       1.0     0.170467     0.829519     0.185486    Uiso  ? Co
   Co40       1.0     0.654217     0.827107     0.480897    Uiso  ? Co
   Co41       1.0     0.172889     0.345782     0.480898    Uiso  ? Co
   Co42       1.0     0.172883     0.827093     0.480900    Uiso  ? Co
   Co43       1.0     0.337768     0.168885     0.511494    Uiso  ? Co
   Co44       1.0     0.831114     0.662229     0.511498    Uiso  ? Co
   Co45       1.0     0.831117     0.168888     0.511497    Uiso  ? Co
   Co46       1.0     0.329511     0.164765     0.820994    Uiso  ? Co
   Co47       1.0     0.835241     0.670476     0.820998    Uiso  ? Co
   Co48       1.0     0.835254     0.164771     0.820995    Uiso  ? Co
   Co49       1.0     0.004536     0.502271     0.845199    Uiso  ? Co
   Co50       1.0     0.497727     0.995455     0.845207    Uiso  ? Co
   Co51       1.0     0.497732     0.502274     0.845200    Uiso  ? Co
   V1         1.0     0.333343     0.666678     0.337122    Uiso  ? V
