
#======================================================================
# CRYSTAL DATA
#----------------------------------------------------------------------
data_VESTA_phase_1

_chemical_name_common                  'Sm6 Co51                              '
_cell_length_a                         8.348201
_cell_length_b                         8.356342
_cell_length_c                         12.164758
_cell_angle_alpha                      89.991707
_cell_angle_beta                       89.999420
_cell_angle_gamma                      119.966011
_cell_volume                           735.176879
_space_group_name_H-M_alt              'P 1'
_space_group_IT_number                 1

loop_
_space_group_symop_operation_xyz
   'x, y, z'

loop_
   _atom_site_label
   _atom_site_occupancy
   _atom_site_fract_x
   _atom_site_fract_y
   _atom_site_fract_z
   _atom_site_adp_type
   _atom_site_U_iso_or_equiv
   _atom_site_type_symbol
   Sm1        1.0     0.333531     0.667613     0.010585    Uiso  ? Sm
   Sm2        1.0     0.666069     0.333614    -0.011106    Uiso  ? Sm
   Sm3        1.0     0.335168     0.679661     0.321677    Uiso  ? Sm
   Sm4        1.0    -0.011191    -0.013031     0.345153    Uiso  ? Sm
   Sm5        1.0    -0.000733    -0.000965     0.656100    Uiso  ? Sm
   Sm6        1.0     0.665930     0.333131     0.677635    Uiso  ? Sm
   Co1        1.0     0.000023     0.000090     0.095408    Uiso  ? Co
   Co2        1.0     0.672042     0.333196     0.236889    Uiso  ? Co
   Co3        1.0     0.672222     0.333452     0.429664    Uiso  ? Co
   Co4        1.0     0.333256     0.666470     0.571292    Uiso  ? Co
   Co5        1.0     0.332943     0.666151     0.762869    Uiso  ? Co
   Co6        1.0     0.000087     0.000470     0.903946    Uiso  ? Co
   Co7        1.0     0.833369     0.166604     0.166719    Uiso  ? Co
   Co8        1.0     0.331811     0.164426     0.163851    Uiso  ? Co
   Co9        1.0     0.832305     0.664660     0.165967    Uiso  ? Co
   Co10       1.0     0.500635     0.502151     0.502740    Uiso  ? Co
   Co11       1.0     0.000246     0.500117     0.499904    Uiso  ? Co
   Co12       1.0     0.501108     0.002254     0.500743    Uiso  ? Co
   Co13       1.0     0.165879     0.333325     0.833399    Uiso  ? Co
   Co14       1.0     0.165528     0.833240     0.832769    Uiso  ? Co
   Co15       1.0     0.665773     0.833474     0.833982    Uiso  ? Co
   Co16       1.0     0.000117     0.713623    -0.000293    Uiso  ? Co
   Co17       1.0    -0.001353     0.286286    -0.001040    Uiso  ? Co
   Co18       1.0     0.287133    -0.000828    -0.000730    Uiso  ? Co
   Co19       1.0     0.285771     0.285495    -0.001425    Uiso  ? Co
   Co20       1.0     0.715437     0.715582    -0.000278    Uiso  ? Co
   Co21       1.0     0.713276     0.000907    -0.000242    Uiso  ? Co
   Co22       1.0     0.380015     0.045571     0.333541    Uiso  ? Co
   Co23       1.0     0.670024     0.051834     0.334047    Uiso  ? Co
   Co24       1.0     0.667746     0.621039     0.333074    Uiso  ? Co
   Co25       1.0     0.967000     0.333322     0.333332    Uiso  ? Co
   Co26       1.0     0.951590     0.614874     0.332550    Uiso  ? Co
   Co27       1.0     0.045942     0.665800     0.666950    Uiso  ? Co
   Co28       1.0     0.045923     0.380527     0.667717    Uiso  ? Co
   Co29       1.0     0.333223     0.951178     0.667025    Uiso  ? Co
   Co30       1.0     0.333618     0.381184     0.668119    Uiso  ? Co
   Co31       1.0     0.621121     0.667471     0.667391    Uiso  ? Co
   Co32       1.0     0.619750     0.952997     0.667041    Uiso  ? Co
   Co33       1.0     0.995844     0.497746     0.153432    Uiso  ? Co
   Co34       1.0     0.503580     0.006828     0.153707    Uiso  ? Co
   Co35       1.0     0.502551     0.500506     0.150036    Uiso  ? Co
   Co36       1.0     0.670819     0.835227     0.178595    Uiso  ? Co
   Co37       1.0     0.162768     0.329654     0.173304    Uiso  ? Co
   Co38       1.0     0.163315     0.835649     0.178894    Uiso  ? Co
   Co39       1.0     0.660850     0.830942     0.487862    Uiso  ? Co
   Co40       1.0     0.166436     0.336903     0.493259    Uiso  ? Co
   Co41       1.0     0.169195     0.831352     0.488095    Uiso  ? Co
   Co42       1.0     0.335474     0.166280     0.516422    Uiso  ? Co
   Co43       1.0     0.830026     0.659659     0.512956    Uiso  ? Co
   Co44       1.0     0.831480     0.168947     0.513243    Uiso  ? Co
   Co45       1.0     0.327998     0.164258     0.820119    Uiso  ? Co
   Co46       1.0     0.834843     0.671055     0.820813    Uiso  ? Co
   Co47       1.0     0.834865     0.164061     0.819761    Uiso  ? Co
   Co48       1.0     0.004140     0.502624     0.846920    Uiso  ? Co
   Co49       1.0     0.497080     0.995542     0.845845    Uiso  ? Co
   Co50       1.0     0.497135     0.502433     0.846555    Uiso  ? Co
   Ti1        1.0     0.379271     0.333373     0.333217    Uiso  ? Ti
