
#======================================================================
# CRYSTAL DATA
#----------------------------------------------------------------------
data_VESTA_phase_1

_chemical_name_common                  'Sm6 Co51                              '
_cell_length_a                         8.365476
_cell_length_b                         8.365476
_cell_length_c                         12.162154
_cell_angle_alpha                      89.970108
_cell_angle_beta                       90.029892
_cell_angle_gamma                      120.174934
_cell_volume                           735.790338
_space_group_name_H-M_alt              'P 1'
_space_group_IT_number                 1

loop_
_space_group_symop_operation_xyz
   'x, y, z'

loop_
   _atom_site_label
   _atom_site_occupancy
   _atom_site_fract_x
   _atom_site_fract_y
   _atom_site_fract_z
   _atom_site_adp_type
   _atom_site_U_iso_or_equiv
   _atom_site_type_symbol
   Sm1        1.0     0.328395     0.671605     0.006705    Uiso  ? Sm
   Sm2        1.0     0.670819     0.329181    -0.015548    Uiso  ? Sm
   Sm3        1.0     0.330761     0.669239     0.325860    Uiso  ? Sm
   Sm4        1.0    -0.000144     0.000144     0.344554    Uiso  ? Sm
   Sm5        1.0     0.000048    -0.000048     0.655587    Uiso  ? Sm
   Sm6        1.0     0.666635     0.333365     0.677217    Uiso  ? Sm
   Co1        1.0     0.000208    -0.000208     0.095443    Uiso  ? Co
   Co2        1.0     0.669797     0.330203     0.237858    Uiso  ? Co
   Co3        1.0     0.666130     0.333870     0.429418    Uiso  ? Co
   Co4        1.0     0.333505     0.666495     0.571077    Uiso  ? Co
   Co5        1.0     0.333704     0.666296     0.762149    Uiso  ? Co
   Co6        1.0     0.000059    -0.000059     0.903088    Uiso  ? Co
   Co7        1.0     0.833118     0.166882     0.166340    Uiso  ? Co
   Co8        1.0     0.329169     0.161950     0.166722    Uiso  ? Co
   Co9        1.0     0.838050     0.670831     0.166722    Uiso  ? Co
   Co10       1.0     0.499713     0.500287     0.501030    Uiso  ? Co
   Co11       1.0    -0.000528     0.499753     0.500195    Uiso  ? Co
   Co12       1.0     0.500247     0.000528     0.500195    Uiso  ? Co
   Co13       1.0     0.166077     0.333675     0.832908    Uiso  ? Co
   Co14       1.0     0.166411     0.833589     0.832350    Uiso  ? Co
   Co15       1.0     0.666325     0.833923     0.832908    Uiso  ? Co
   Co16       1.0    -0.000050     0.714319    -0.000835    Uiso  ? Co
   Co17       1.0     0.000734     0.285901     0.000163    Uiso  ? Co
   Co18       1.0     0.285681     0.000050    -0.000835    Uiso  ? Co
   Co19       1.0     0.282316     0.281649    -0.002165    Uiso  ? Co
   Co20       1.0     0.718351     0.717684    -0.002165    Uiso  ? Co
   Co21       1.0     0.714099    -0.000734     0.000163    Uiso  ? Co
   Co22       1.0     0.378896     0.330720     0.336833    Uiso  ? Co
   Co23       1.0     0.380823     0.047562     0.333620    Uiso  ? Co
   Co24       1.0     0.666645     0.046583     0.333643    Uiso  ? Co
   Co25       1.0     0.669280     0.621104     0.336833    Uiso  ? Co
   Co26       1.0     0.953417     0.333355     0.333643    Uiso  ? Co
   Co27       1.0     0.952438     0.619177     0.333620    Uiso  ? Co
   Co28       1.0     0.047641     0.666499     0.666318    Uiso  ? Co
   Co29       1.0     0.046606     0.379942     0.666357    Uiso  ? Co
   Co30       1.0     0.333501     0.952359     0.666318    Uiso  ? Co
   Co31       1.0     0.333444     0.380573     0.667679    Uiso  ? Co
   Co32       1.0     0.619427     0.666556     0.667679    Uiso  ? Co
   Co33       1.0     0.620058     0.953394     0.666357    Uiso  ? Co
   Co34       1.0     0.995345     0.497408     0.154437    Uiso  ? Co
   Co35       1.0     0.502592     0.004655     0.154437    Uiso  ? Co
   Co36       1.0     0.671960     0.838468     0.179639    Uiso  ? Co
   Co37       1.0     0.161532     0.328040     0.179639    Uiso  ? Co
   Co38       1.0     0.164829     0.835171     0.179827    Uiso  ? Co
   Co39       1.0     0.661801     0.831205     0.488123    Uiso  ? Co
   Co40       1.0     0.168795     0.338199     0.488123    Uiso  ? Co
   Co41       1.0     0.168910     0.831090     0.487643    Uiso  ? Co
   Co42       1.0     0.338347     0.169211     0.513799    Uiso  ? Co
   Co43       1.0     0.830789     0.661653     0.513799    Uiso  ? Co
   Co44       1.0     0.831036     0.168964     0.512487    Uiso  ? Co
   Co45       1.0     0.328931     0.164955     0.819521    Uiso  ? Co
   Co46       1.0     0.835045     0.671069     0.819521    Uiso  ? Co
   Co47       1.0     0.835802     0.164198     0.820057    Uiso  ? Co
   Co48       1.0     0.004443     0.502404     0.844583    Uiso  ? Co
   Co49       1.0     0.497596     0.995557     0.844583    Uiso  ? Co
   Co50       1.0     0.497348     0.502652     0.849108    Uiso  ? Co
   Ti1        1.0     0.503093     0.496907     0.154672    Uiso  ? Ti
