
#======================================================================
# CRYSTAL DATA
#----------------------------------------------------------------------
data_VESTA_phase_1

_chemical_name_common                  'Sm6 Co51                              '
_cell_length_a                         8.352989
_cell_length_b                         8.352989
_cell_length_c                         12.147191
_cell_angle_alpha                      90.000000
_cell_angle_beta                       90.000000
_cell_angle_gamma                      120.000000
_cell_volume                           733.990321
_space_group_name_H-M_alt              'P 1'
_space_group_IT_number                 1

loop_
_space_group_symop_operation_xyz
   'x, y, z'

loop_
   _atom_site_label
   _atom_site_occupancy
   _atom_site_fract_x
   _atom_site_fract_y
   _atom_site_fract_z
   _atom_site_adp_type
   _atom_site_U_iso_or_equiv
   _atom_site_type_symbol
   Sm1        1.0     0.333333     0.666667     0.011460    Uiso  ? Sm
   Sm2        1.0     0.666667     0.333333    -0.017823    Uiso  ? Sm
   Sm3        1.0     0.333333     0.666667     0.322021    Uiso  ? Sm
   Sm4        1.0     0.000000     0.000000     0.344994    Uiso  ? Sm
   Sm5        1.0     0.000000     0.000000     0.655877    Uiso  ? Sm
   Sm6        1.0     0.666667     0.333333     0.676175    Uiso  ? Sm
   Co1        1.0     0.000000     0.000000     0.094584    Uiso  ? Co
   Co2        1.0     0.666667     0.333333     0.432490    Uiso  ? Co
   Co3        1.0     0.333333     0.666667     0.570957    Uiso  ? Co
   Co4        1.0     0.333333     0.666667     0.762709    Uiso  ? Co
   Co5        1.0     0.000000     0.000000     0.903606    Uiso  ? Co
   Co6        1.0     0.835805     0.164195     0.166247    Uiso  ? Co
   Co7        1.0     0.328388     0.164195     0.166247    Uiso  ? Co
   Co8        1.0     0.835805     0.671612     0.166247    Uiso  ? Co
   Co9        1.0     0.499781     0.500219     0.499894    Uiso  ? Co
   Co10       1.0     0.000439     0.500219     0.499894    Uiso  ? Co
   Co11       1.0     0.499781    -0.000439     0.499894    Uiso  ? Co
   Co12       1.0     0.166249     0.332498     0.833352    Uiso  ? Co
   Co13       1.0     0.166249     0.833751     0.833352    Uiso  ? Co
   Co14       1.0     0.667502     0.833751     0.833352    Uiso  ? Co
   Co15       1.0     0.000175     0.713337    -0.000041    Uiso  ? Co
   Co16       1.0     0.000175     0.286839    -0.000041    Uiso  ? Co
   Co17       1.0     0.286663    -0.000175    -0.000041    Uiso  ? Co
   Co18       1.0     0.286663     0.286839    -0.000041    Uiso  ? Co
   Co19       1.0     0.713162     0.713337    -0.000041    Uiso  ? Co
   Co20       1.0     0.713162    -0.000175    -0.000041    Uiso  ? Co
   Co21       1.0     0.375599     0.333015     0.334017    Uiso  ? Co
   Co22       1.0     0.375599     0.042582     0.334017    Uiso  ? Co
   Co23       1.0     0.666984     0.042582     0.334017    Uiso  ? Co
   Co24       1.0     0.666984     0.624401     0.334017    Uiso  ? Co
   Co25       1.0     0.957418     0.333015     0.334017    Uiso  ? Co
   Co26       1.0     0.957418     0.624401     0.334017    Uiso  ? Co
   Co27       1.0     0.047083     0.666436     0.667156    Uiso  ? Co
   Co28       1.0     0.047083     0.380648     0.667156    Uiso  ? Co
   Co29       1.0     0.333564     0.952917     0.667156    Uiso  ? Co
   Co30       1.0     0.333564     0.380648     0.667156    Uiso  ? Co
   Co31       1.0     0.619352     0.666436     0.667156    Uiso  ? Co
   Co32       1.0     0.619352     0.952917     0.667156    Uiso  ? Co
   Co33       1.0    -0.002300     0.498850     0.151876    Uiso  ? Co
   Co34       1.0     0.501150     0.002300     0.151876    Uiso  ? Co
   Co35       1.0     0.501150     0.498850     0.151876    Uiso  ? Co
   Co36       1.0     0.671630     0.835814     0.179153    Uiso  ? Co
   Co37       1.0     0.164186     0.328370     0.179153    Uiso  ? Co
   Co38       1.0     0.164186     0.835814     0.179153    Uiso  ? Co
   Co39       1.0     0.661995     0.830997     0.488808    Uiso  ? Co
   Co40       1.0     0.169003     0.338005     0.488808    Uiso  ? Co
   Co41       1.0     0.169003     0.830997     0.488808    Uiso  ? Co
   Co42       1.0     0.337255     0.168628     0.512575    Uiso  ? Co
   Co43       1.0     0.831372     0.662745     0.512575    Uiso  ? Co
   Co44       1.0     0.831372     0.168628     0.512575    Uiso  ? Co
   Co45       1.0     0.328552     0.164276     0.820099    Uiso  ? Co
   Co46       1.0     0.835724     0.671448     0.820099    Uiso  ? Co
   Co47       1.0     0.835724     0.164276     0.820099    Uiso  ? Co
   Co48       1.0     0.005560     0.502780     0.846082    Uiso  ? Co
   Co49       1.0     0.497220     0.994440     0.846082    Uiso  ? Co
   Co50       1.0     0.497220     0.502780     0.846082    Uiso  ? Co
   Ti1        1.0     0.666667     0.333333     0.241903    Uiso  ? Ti
