
#======================================================================
# CRYSTAL DATA
#----------------------------------------------------------------------
data_VESTA_phase_1

_chemical_name_common                  'Sm6 Co51                              '
_cell_length_a                         8.365217
_cell_length_b                         8.365217
_cell_length_c                         12.169181
_cell_angle_alpha                      89.920670
_cell_angle_beta                       90.079330
_cell_angle_gamma                      120.153610
_cell_volume                           736.328397
_space_group_name_H-M_alt              'P 1'
_space_group_IT_number                 1

loop_
_space_group_symop_operation_xyz
   'x, y, z'

loop_
   _atom_site_label
   _atom_site_occupancy
   _atom_site_fract_x
   _atom_site_fract_y
   _atom_site_fract_z
   _atom_site_adp_type
   _atom_site_U_iso_or_equiv
   _atom_site_type_symbol
   Sm1        1.0     0.333672     0.666328     0.010675    Uiso  ? Sm
   Sm2        1.0     0.664727     0.335273    -0.014103    Uiso  ? Sm
   Sm3        1.0     0.333042     0.666958     0.322782    Uiso  ? Sm
   Sm4        1.0     0.001924    -0.001924     0.347332    Uiso  ? Sm
   Sm5        1.0     0.000308    -0.000308     0.656092    Uiso  ? Sm
   Sm6        1.0     0.666346     0.333654     0.677245    Uiso  ? Sm
   Co1        1.0     0.004154    -0.004154     0.094916    Uiso  ? Co
   Co2        1.0     0.662528     0.337472     0.238434    Uiso  ? Co
   Co3        1.0     0.667323     0.332677     0.429700    Uiso  ? Co
   Co4        1.0     0.333363     0.666637     0.570903    Uiso  ? Co
   Co5        1.0     0.333268     0.666732     0.762528    Uiso  ? Co
   Co6        1.0    -0.000577     0.000577     0.903792    Uiso  ? Co
   Co7        1.0     0.333314     0.166666     0.166626    Uiso  ? Co
   Co8        1.0     0.833334     0.666686     0.166626    Uiso  ? Co
   Co9        1.0    -0.000224     0.500836     0.501082    Uiso  ? Co
   Co10       1.0     0.499164     0.000224     0.501082    Uiso  ? Co
   Co11       1.0     0.500046     0.499954     0.499568    Uiso  ? Co
   Co12       1.0     0.167488     0.333146     0.832287    Uiso  ? Co
   Co13       1.0     0.166574     0.833426     0.833756    Uiso  ? Co
   Co14       1.0     0.666854     0.832512     0.832287    Uiso  ? Co
   Co15       1.0     0.000178     0.712811     0.000003    Uiso  ? Co
   Co16       1.0     0.001900     0.287759    -0.003759    Uiso  ? Co
   Co17       1.0     0.287189    -0.000178     0.000003    Uiso  ? Co
   Co18       1.0     0.285507     0.285508    -0.000054    Uiso  ? Co
   Co19       1.0     0.714492     0.714493    -0.000054    Uiso  ? Co
   Co20       1.0     0.712241    -0.001900    -0.003759    Uiso  ? Co
   Co21       1.0     0.379593     0.333459     0.333313    Uiso  ? Co
   Co22       1.0     0.381229     0.047878     0.333382    Uiso  ? Co
   Co23       1.0     0.664804     0.045528     0.337070    Uiso  ? Co
   Co24       1.0     0.666541     0.620407     0.333313    Uiso  ? Co
   Co25       1.0     0.954472     0.335196     0.337070    Uiso  ? Co
   Co26       1.0     0.952122     0.618771     0.333382    Uiso  ? Co
   Co27       1.0     0.047449     0.667090     0.667225    Uiso  ? Co
   Co28       1.0     0.047642     0.380956     0.666655    Uiso  ? Co
   Co29       1.0     0.332910     0.952551     0.667225    Uiso  ? Co
   Co30       1.0     0.333688     0.380780     0.666116    Uiso  ? Co
   Co31       1.0     0.619220     0.666312     0.666116    Uiso  ? Co
   Co32       1.0     0.619044     0.952358     0.666655    Uiso  ? Co
   Co33       1.0    -0.000727     0.503711     0.154627    Uiso  ? Co
   Co34       1.0     0.496289     0.000727     0.154627    Uiso  ? Co
   Co35       1.0     0.502850     0.497150     0.152217    Uiso  ? Co
   Co36       1.0     0.667415     0.829709     0.178786    Uiso  ? Co
   Co37       1.0     0.170291     0.332585     0.178786    Uiso  ? Co
   Co38       1.0     0.163779     0.836221     0.181229    Uiso  ? Co
   Co39       1.0     0.661982     0.831216     0.487912    Uiso  ? Co
   Co40       1.0     0.168784     0.338018     0.487912    Uiso  ? Co
   Co41       1.0     0.168849     0.831151     0.488201    Uiso  ? Co
   Co42       1.0     0.338011     0.169407     0.513037    Uiso  ? Co
   Co43       1.0     0.830593     0.661989     0.513037    Uiso  ? Co
   Co44       1.0     0.830939     0.169061     0.514025    Uiso  ? Co
   Co45       1.0     0.328548     0.163896     0.820311    Uiso  ? Co
   Co46       1.0     0.836104     0.671452     0.820311    Uiso  ? Co
   Co47       1.0     0.835795     0.164205     0.819318    Uiso  ? Co
   Co48       1.0     0.004674     0.502109     0.845290    Uiso  ? Co
   Co49       1.0     0.497891     0.995326     0.845290    Uiso  ? Co
   Co50       1.0     0.497787     0.502213     0.845065    Uiso  ? Co
   Ti1        1.0     0.833296     0.166704     0.166499    Uiso  ? Ti
