
#======================================================================
# CRYSTAL DATA
#----------------------------------------------------------------------
data_VESTA_phase_1

_chemical_name_common                  'Sm6 Co51                              '
_cell_length_a                         8.298736
_cell_length_b                         8.298731
_cell_length_c                         12.090117
_cell_angle_alpha                      90.001350
_cell_angle_beta                       89.998962
_cell_angle_gamma                      119.999878
_cell_volume                           721.083062
_space_group_name_H-M_alt              'P 1'
_space_group_IT_number                 1

loop_
_space_group_symop_operation_xyz
   'x, y, z'

loop_
   _atom_site_label
   _atom_site_occupancy
   _atom_site_fract_x
   _atom_site_fract_y
   _atom_site_fract_z
   _atom_site_adp_type
   _atom_site_U_iso_or_equiv
   _atom_site_type_symbol
   Sm1        1.0     0.333326     0.666674     0.012790    Uiso  ? Sm
   Sm2        1.0     0.666684     0.333310    -0.010756    Uiso  ? Sm
   Sm3        1.0    -0.000009     0.000014     0.344508    Uiso  ? Sm
   Sm4        1.0    -0.000003     0.000014     0.654750    Uiso  ? Sm
   Sm5        1.0     0.666683     0.333314     0.677138    Uiso  ? Sm
   Co1        1.0    -0.000002     0.000004     0.097996    Uiso  ? Co
   Co2        1.0     0.666669     0.333328     0.237675    Uiso  ? Co
   Co3        1.0     0.666670     0.333329     0.428315    Uiso  ? Co
   Co4        1.0     0.333335     0.666665     0.564373    Uiso  ? Co
   Co5        1.0     0.333334     0.666669     0.760721    Uiso  ? Co
   Co6        1.0    -0.000002     0.000004     0.904983    Uiso  ? Co
   Co7        1.0     0.834032     0.165968     0.168058    Uiso  ? Co
   Co8        1.0     0.331942     0.165959     0.168057    Uiso  ? Co
   Co9        1.0     0.834040     0.668055     0.168057    Uiso  ? Co
   Co10       1.0     0.499673     0.500327     0.499047    Uiso  ? Co
   Co11       1.0     0.000649     0.500317     0.499055    Uiso  ? Co
   Co12       1.0     0.499681    -0.000651     0.499055    Uiso  ? Co
   Co13       1.0     0.166625     0.333296     0.833426    Uiso  ? Co
   Co14       1.0     0.166649     0.833354     0.833422    Uiso  ? Co
   Co15       1.0     0.666703     0.833375     0.833427    Uiso  ? Co
   Co16       1.0     0.000567     0.713433     0.001293    Uiso  ? Co
   Co17       1.0     0.000559     0.287125     0.001287    Uiso  ? Co
   Co18       1.0     0.286569    -0.000563     0.001294    Uiso  ? Co
   Co19       1.0     0.286560     0.287130     0.001294    Uiso  ? Co
   Co20       1.0     0.712868     0.713439     0.001293    Uiso  ? Co
   Co21       1.0     0.712873    -0.000557     0.001287    Uiso  ? Co
   Co22       1.0     0.377382     0.338224     0.332871    Uiso  ? Co
   Co23       1.0     0.377392     0.039154     0.332873    Uiso  ? Co
   Co24       1.0     0.661772     0.039155     0.332874    Uiso  ? Co
   Co25       1.0     0.661775     0.622618     0.332871    Uiso  ? Co
   Co26       1.0     0.960844     0.338226     0.332874    Uiso  ? Co
   Co27       1.0     0.960845     0.622608     0.332873    Uiso  ? Co
   Co28       1.0     0.046777     0.667366     0.665536    Uiso  ? Co
   Co29       1.0     0.046768     0.379401     0.665541    Uiso  ? Co
   Co30       1.0     0.332637     0.953228     0.665535    Uiso  ? Co
   Co31       1.0     0.332630     0.379404     0.665529    Uiso  ? Co
   Co32       1.0     0.620591     0.667367     0.665530    Uiso  ? Co
   Co33       1.0     0.620596     0.953234     0.665540    Uiso  ? Co
   Co34       1.0    -0.000564     0.499692     0.155615    Uiso  ? Co
   Co35       1.0     0.500304     0.000562     0.155617    Uiso  ? Co
   Co36       1.0     0.500274     0.499720     0.155620    Uiso  ? Co
   Co37       1.0     0.661036     0.830524     0.184540    Uiso  ? Co
   Co38       1.0     0.169474     0.338963     0.184543    Uiso  ? Co
   Co39       1.0     0.169486     0.830513     0.184537    Uiso  ? Co
   Co40       1.0     0.655122     0.827572     0.481349    Uiso  ? Co
   Co41       1.0     0.172430     0.344876     0.481346    Uiso  ? Co
   Co42       1.0     0.172443     0.827561     0.481349    Uiso  ? Co
   Co43       1.0     0.337868     0.168928     0.511989    Uiso  ? Co
   Co44       1.0     0.831071     0.662130     0.511988    Uiso  ? Co
   Co45       1.0     0.831068     0.168933     0.511992    Uiso  ? Co
   Co46       1.0     0.329317     0.164650     0.820816    Uiso  ? Co
   Co47       1.0     0.835355     0.670687     0.820815    Uiso  ? Co
   Co48       1.0     0.835345     0.164659     0.820812    Uiso  ? Co
   Co49       1.0     0.004598     0.502280     0.845536    Uiso  ? Co
   Co50       1.0     0.497721     0.995405     0.845538    Uiso  ? Co
   Co51       1.0     0.497703     0.502295     0.845537    Uiso  ? Co
   Ti1        1.0     0.333266     0.666732     0.328170    Uiso  ? Ti
