
#======================================================================
# CRYSTAL DATA
#----------------------------------------------------------------------
data_VESTA_phase_1

_chemical_name_common                  'Sm9 Co27'
_cell_length_a                         5.035935
_cell_length_b                         5.035935
_cell_length_c                         24.746325
_cell_angle_alpha                      90.000000
_cell_angle_beta                       90.000000
_cell_angle_gamma                      120.000000
_cell_volume                           543.502511
_space_group_name_H-M_alt              'P 1'
_space_group_IT_number                 1

loop_
_space_group_symop_operation_xyz
   'x, y, z'

loop_
   _atom_site_label
   _atom_site_occupancy
   _atom_site_fract_x
   _atom_site_fract_y
   _atom_site_fract_z
   _atom_site_adp_type
   _atom_site_B_iso_or_equiv
   _atom_site_type_symbol
   Sm0        1.0     0.666667     0.333333     0.193699    Biso  1.000000 Sm
   Sm1        1.0     0.000000     0.000000     0.139634    Biso  1.000000 Sm
   Sm2        1.0     0.000000     0.000000     0.000000    Biso  1.000000 Sm
   Sm3        1.0     0.333333     0.666667     0.527033    Biso  1.000000 Sm
   Sm4        1.0     0.666667     0.333333     0.472967    Biso  1.000000 Sm
   Sm5        1.0     0.666667     0.333333     0.333333    Biso  1.000000 Sm
   Sm6        1.0     0.000000     0.000000     0.860366    Biso  1.000000 Sm
   Sm7        1.0     0.333333     0.666667     0.806301    Biso  1.000000 Sm
   Sm8        1.0     0.333333     0.666667     0.666667    Biso  1.000000 Sm
   Co9        1.0     0.666666     0.833333     0.253176    Biso  1.000000 Co
   Co10       1.0     0.166667     0.333334     0.253176    Biso  1.000000 Co
   Co11       1.0     0.166667     0.833333     0.253176    Biso  1.000000 Co
   Co12       1.0     0.000001     0.500000     0.080157    Biso  1.000000 Co
   Co13       1.0     0.500000     0.999999     0.080157    Biso  1.000000 Co
   Co14       1.0     0.500000     0.500000     0.080157    Biso  1.000000 Co
   Co15       1.0     0.333333     0.666667     0.332163    Biso  1.000000 Co
   Co16       1.0     0.333333     0.666667     0.001171    Biso  1.000000 Co
   Co17       1.0     0.333333     0.666667     0.166667    Biso  1.000000 Co
   Co18       1.0     0.333333     0.166666     0.586509    Biso  1.000000 Co
   Co19       1.0     0.833334     0.666667     0.586509    Biso  1.000000 Co
   Co20       1.0     0.833334     0.166666     0.586509    Biso  1.000000 Co
   Co21       1.0     0.666667     0.833334     0.413491    Biso  1.000000 Co
   Co22       1.0     0.166666     0.333333     0.413491    Biso  1.000000 Co
   Co23       1.0     0.166666     0.833334     0.413491    Biso  1.000000 Co
   Co24       1.0     0.000000     0.000000     0.665496    Biso  1.000000 Co
   Co25       1.0     0.000000     0.000000     0.334504    Biso  1.000000 Co
   Co26       1.0     1.000000     1.000000     0.500000    Biso  1.000000 Co
   Co27       1.0     0.999999     0.500000     0.919843    Biso  1.000000 Co
   Co28       1.0     0.500000     0.000001     0.919843    Biso  1.000000 Co
   Co29       1.0     0.500000     0.500000     0.919843    Biso  1.000000 Co
   Co30       1.0     0.333334     0.166667     0.746824    Biso  1.000000 Co
   Co31       1.0     0.833333     0.666666     0.746824    Biso  1.000000 Co
   Co32       1.0     0.833333     0.166667     0.746824    Biso  1.000000 Co
   Co33       1.0     0.666667     0.333333     0.998829    Biso  1.000000 Co
   Co34       1.0     0.666667     0.333333     0.667837    Biso  1.000000 Co
   Co35       1.0     0.666667     0.333333     0.833333    Biso  1.000000 Co
