
#======================================================================
# CRYSTAL DATA
#----------------------------------------------------------------------
data_VESTA_phase_1

_chemical_name_common                  'Sm2 Co10                              '
_cell_length_a                         5.092969
_cell_length_b                         5.210443
_cell_length_c                         7.875541
_cell_angle_alpha                      90.000000
_cell_angle_beta                       90.000000
_cell_angle_gamma                      120.765999
_cell_volume                           179.577775
_space_group_name_H-M_alt              'P 1'
_space_group_IT_number                 1

loop_
_space_group_symop_operation_xyz
   'x, y, z'

loop_
   _atom_site_label
   _atom_site_occupancy
   _atom_site_fract_x
   _atom_site_fract_y
   _atom_site_fract_z
   _atom_site_adp_type
   _atom_site_U_iso_or_equiv
   _atom_site_type_symbol
   Sm1        1.0     0.000000     0.000000     0.000804    Uiso  ? Sm
   Sm2        1.0     0.000000     0.000000     0.499196    Uiso  ? Sm
   Co1        1.0     0.329469     0.664734     0.995809    Uiso  ? Co
   Co2        1.0     0.670531     0.335266     0.995809    Uiso  ? Co
   Co3        1.0     0.329469     0.664734     0.504191    Uiso  ? Co
   Co4        1.0     0.670531     0.335266     0.504191    Uiso  ? Co
   Co5        1.0     0.000000     0.500000     0.250000    Uiso  ? Co
   Mn1        1.0     0.500000     0.500000     0.250000    Uiso  ? Mn
   Mn2        1.0     0.500000     0.000000     0.750000    Uiso  ? Mn
   Mn3        1.0     0.500000     0.000000     0.250000    Uiso  ? Mn
   Mn4        1.0     0.000000     0.500000     0.750000    Uiso  ? Mn
   Mn5        1.0     0.500000     0.500000     0.750000    Uiso  ? Mn
