
#======================================================================
# CRYSTAL DATA
#----------------------------------------------------------------------
data_VESTA_phase_1

_chemical_name_common                  'Sm6 Co51                              '
_cell_length_a                         8.340556
_cell_length_b                         8.338635
_cell_length_c                         12.145113
_cell_angle_alpha                      89.970985
_cell_angle_beta                       89.998726
_cell_angle_gamma                      120.007683
_cell_volume                           731.456467
_space_group_name_H-M_alt              'P 1'
_space_group_IT_number                 1

loop_
_space_group_symop_operation_xyz
   'x, y, z'

loop_
   _atom_site_label
   _atom_site_occupancy
   _atom_site_fract_x
   _atom_site_fract_y
   _atom_site_fract_z
   _atom_site_adp_type
   _atom_site_U_iso_or_equiv
   _atom_site_type_symbol
   Sm1        1.0     0.333378     0.666506     0.011291    Uiso  ? Sm
   Sm2        1.0     0.666658     0.333422    -0.011136    Uiso  ? Sm
   Sm3        1.0     0.333347     0.665192     0.322384    Uiso  ? Sm
   Sm4        1.0     0.001542     0.001544     0.344166    Uiso  ? Sm
   Sm5        1.0     0.000232     0.000190     0.655580    Uiso  ? Sm
   Sm6        1.0     0.666604     0.333214     0.677661    Uiso  ? Sm
   Co1        1.0     0.000124    -0.000006     0.095858    Uiso  ? Co
   Co2        1.0     0.665256     0.333334     0.237524    Uiso  ? Co
   Co3        1.0     0.665120     0.333351     0.429157    Uiso  ? Co
   Co4        1.0     0.333643     0.666672     0.570657    Uiso  ? Co
   Co5        1.0     0.333195     0.666487     0.762666    Uiso  ? Co
   Co6        1.0     0.000018     0.000127     0.904018    Uiso  ? Co
   Co7        1.0     0.833340     0.166791     0.166691    Uiso  ? Co
   Co8        1.0     0.333962     0.166727     0.166148    Uiso  ? Co
   Co9        1.0     0.833908     0.667271     0.166752    Uiso  ? Co
   Co10       1.0     0.500747     0.499881     0.500605    Uiso  ? Co
   Co11       1.0    -0.000224     0.499780     0.499915    Uiso  ? Co
   Co12       1.0     0.500022    -0.000645     0.499851    Uiso  ? Co
   Co13       1.0     0.166300     0.333236     0.833375    Uiso  ? Co
   Co14       1.0     0.166711     0.833302     0.833175    Uiso  ? Co
   Co15       1.0     0.666894     0.833425     0.833588    Uiso  ? Co
   Co16       1.0     0.000066     0.713652    -0.000007    Uiso  ? Co
   Co17       1.0    -0.000428     0.286458     0.000067    Uiso  ? Co
   Co18       1.0     0.286747    -0.000351    -0.000235    Uiso  ? Co
   Co19       1.0     0.286010     0.285896    -0.000725    Uiso  ? Co
   Co20       1.0     0.713507     0.713375     0.000203    Uiso  ? Co
   Co21       1.0     0.713454     0.000018     0.000002    Uiso  ? Co
   Co22       1.0     0.380030     0.044521     0.332975    Uiso  ? Co
   Co23       1.0     0.666282     0.046787     0.333138    Uiso  ? Co
   Co24       1.0     0.668843     0.622161     0.333716    Uiso  ? Co
   Co25       1.0     0.953036     0.333316     0.333329    Uiso  ? Co
   Co26       1.0     0.952796     0.619907     0.333523    Uiso  ? Co
   Co27       1.0     0.046961     0.666670     0.666639    Uiso  ? Co
   Co28       1.0     0.046690     0.380354     0.666608    Uiso  ? Co
   Co29       1.0     0.333439     0.953100     0.666478    Uiso  ? Co
   Co30       1.0     0.333408     0.380727     0.667445    Uiso  ? Co
   Co31       1.0     0.620263     0.667011     0.666943    Uiso  ? Co
   Co32       1.0     0.619693     0.952943     0.666670    Uiso  ? Co
   Co33       1.0     0.995357     0.498003     0.154116    Uiso  ? Co
   Co34       1.0     0.502515     0.004384     0.153774    Uiso  ? Co
   Co35       1.0     0.502412     0.497193     0.154007    Uiso  ? Co
   Co36       1.0     0.671112     0.835632     0.179319    Uiso  ? Co
   Co37       1.0     0.164361     0.329231     0.178458    Uiso  ? Co
   Co38       1.0     0.164577     0.835872     0.179317    Uiso  ? Co
   Co39       1.0     0.662108     0.830793     0.487240    Uiso  ? Co
   Co40       1.0     0.168631     0.337673     0.488131    Uiso  ? Co
   Co41       1.0     0.168860     0.831029     0.487229    Uiso  ? Co
   Co42       1.0     0.338546     0.169430     0.512809    Uiso  ? Co
   Co43       1.0     0.831671     0.662514     0.513044    Uiso  ? Co
   Co44       1.0     0.830699     0.168601     0.512662    Uiso  ? Co
   Co45       1.0     0.328844     0.164480     0.820428    Uiso  ? Co
   Co46       1.0     0.835582     0.671212     0.820623    Uiso  ? Co
   Co47       1.0     0.835522     0.164363     0.820538    Uiso  ? Co
   Co48       1.0     0.004594     0.502365     0.846064    Uiso  ? Co
   Co49       1.0     0.497659     0.995371     0.845957    Uiso  ? Co
   Co50       1.0     0.497624     0.502198     0.846197    Uiso  ? Co
   Ni1        1.0     0.377750     0.333312     0.333393    Uiso  ? Ni
