
#======================================================================
# CRYSTAL DATA
#----------------------------------------------------------------------
data_VESTA_phase_1

_chemical_name_common                  'Sm6 Co51                              '
_cell_length_a                         8.341207
_cell_length_b                         8.341207
_cell_length_c                         12.124938
_cell_angle_alpha                      90.010887
_cell_angle_beta                       89.989113
_cell_angle_gamma                      119.879501
_cell_volume                           731.465675
_space_group_name_H-M_alt              'P 1'
_space_group_IT_number                 1

loop_
_space_group_symop_operation_xyz
   'x, y, z'

loop_
   _atom_site_label
   _atom_site_occupancy
   _atom_site_fract_x
   _atom_site_fract_y
   _atom_site_fract_z
   _atom_site_adp_type
   _atom_site_U_iso_or_equiv
   _atom_site_type_symbol
   Sm1        1.0     0.334431     0.665569     0.011878    Uiso  ? Sm
   Sm2        1.0     0.665466     0.334534    -0.010605    Uiso  ? Sm
   Sm3        1.0     0.333377     0.666623     0.321995    Uiso  ? Sm
   Sm4        1.0     0.000328    -0.000328     0.344607    Uiso  ? Sm
   Sm5        1.0     0.000011    -0.000011     0.655612    Uiso  ? Sm
   Sm6        1.0     0.666745     0.333255     0.677899    Uiso  ? Sm
   Co1        1.0    -0.000001     0.000001     0.095939    Uiso  ? Co
   Co2        1.0     0.667300     0.332700     0.237699    Uiso  ? Co
   Co3        1.0     0.666601     0.333399     0.429352    Uiso  ? Co
   Co4        1.0     0.333182     0.666818     0.570549    Uiso  ? Co
   Co5        1.0     0.333182     0.666818     0.762850    Uiso  ? Co
   Co6        1.0    -0.000037     0.000037     0.903942    Uiso  ? Co
   Co7        1.0     0.832864     0.167136     0.166389    Uiso  ? Co
   Co8        1.0     0.333010     0.166438     0.166536    Uiso  ? Co
   Co9        1.0     0.833562     0.666990     0.166536    Uiso  ? Co
   Co10       1.0     0.500168     0.499832     0.499769    Uiso  ? Co
   Co11       1.0    -0.000066     0.499923     0.499988    Uiso  ? Co
   Co12       1.0     0.500077     0.000066     0.499988    Uiso  ? Co
   Co13       1.0     0.166349     0.333110     0.833163    Uiso  ? Co
   Co14       1.0     0.166615     0.833385     0.833560    Uiso  ? Co
   Co15       1.0     0.666890     0.833651     0.833163    Uiso  ? Co
   Co16       1.0     0.000678     0.713148     0.000273    Uiso  ? Co
   Co17       1.0    -0.000627     0.287045     0.000019    Uiso  ? Co
   Co18       1.0     0.286852    -0.000678     0.000273    Uiso  ? Co
   Co19       1.0     0.283593     0.283883    -0.000280    Uiso  ? Co
   Co20       1.0     0.716117     0.716407    -0.000280    Uiso  ? Co
   Co21       1.0     0.712955     0.000627     0.000019    Uiso  ? Co
   Co22       1.0     0.380100     0.333955     0.332537    Uiso  ? Co
   Co23       1.0     0.381066     0.047778     0.333395    Uiso  ? Co
   Co24       1.0     0.667070     0.047161     0.333429    Uiso  ? Co
   Co25       1.0     0.666045     0.619900     0.332537    Uiso  ? Co
   Co26       1.0     0.952839     0.332930     0.333429    Uiso  ? Co
   Co27       1.0     0.952222     0.618934     0.333395    Uiso  ? Co
   Co28       1.0     0.047041     0.666737     0.666712    Uiso  ? Co
   Co29       1.0     0.047292     0.380607     0.666634    Uiso  ? Co
   Co30       1.0     0.333263     0.952959     0.666712    Uiso  ? Co
   Co31       1.0     0.333707     0.380579     0.666723    Uiso  ? Co
   Co32       1.0     0.619421     0.666293     0.666723    Uiso  ? Co
   Co33       1.0     0.619393     0.952708     0.666634    Uiso  ? Co
   Co34       1.0     0.995579     0.497806     0.153566    Uiso  ? Co
   Co35       1.0     0.502194     0.004421     0.153566    Uiso  ? Co
   Co36       1.0     0.674816     0.838076     0.180772    Uiso  ? Co
   Co37       1.0     0.161924     0.325184     0.180772    Uiso  ? Co
   Co38       1.0     0.165009     0.834992     0.179472    Uiso  ? Co
   Co39       1.0     0.662183     0.830903     0.487160    Uiso  ? Co
   Co40       1.0     0.169097     0.337817     0.487160    Uiso  ? Co
   Co41       1.0     0.168997     0.831003     0.486627    Uiso  ? Co
   Co42       1.0     0.337840     0.168862     0.512859    Uiso  ? Co
   Co43       1.0     0.831138     0.662160     0.512859    Uiso  ? Co
   Co44       1.0     0.831239     0.168761     0.513148    Uiso  ? Co
   Co45       1.0     0.328525     0.164196     0.820194    Uiso  ? Co
   Co46       1.0     0.835804     0.671475     0.820194    Uiso  ? Co
   Co47       1.0     0.835530     0.164470     0.820604    Uiso  ? Co
   Co48       1.0     0.004544     0.502518     0.846432    Uiso  ? Co
   Co49       1.0     0.497481     0.995456     0.846432    Uiso  ? Co
   Co50       1.0     0.497535     0.502465     0.846952    Uiso  ? Co
   Ni1        1.0     0.501486     0.498514     0.151538    Uiso  ? Ni
