
#======================================================================
# CRYSTAL DATA
#----------------------------------------------------------------------
data_VESTA_phase_1

_chemical_name_common                  'Sm2 Co10                              '
_cell_length_a                         4.772037
_cell_length_b                         4.772037
_cell_length_c                         7.997180
_cell_angle_alpha                      90.000000
_cell_angle_beta                       90.000000
_cell_angle_gamma                      120.000008
_cell_volume                           157.715714
_space_group_name_H-M_alt              'P 1'
_space_group_IT_number                 1

loop_
_space_group_symop_operation_xyz
   'x, y, z'

loop_
   _atom_site_label
   _atom_site_occupancy
   _atom_site_fract_x
   _atom_site_fract_y
   _atom_site_fract_z
   _atom_site_adp_type
   _atom_site_U_iso_or_equiv
   _atom_site_type_symbol
   Sm1        1.0     -0.000000     -0.000000     0.500000    Uiso  ? Sm
   Co1        1.0     0.333333     0.666667     0.000000    Uiso  ? Co
   Co2        1.0     0.666667     0.333333     0.000000    Uiso  ? Co
   Co3        1.0     0.333333     0.666667     0.500000    Uiso  ? Co
   Co4        1.0     0.666667     0.333333     0.500000    Uiso  ? Co
   Co5        1.0     0.500000     0.000000     0.244501    Uiso  ? Co
   Co6        1.0     0.000000     0.500000     0.244501    Uiso  ? Co
   Co7        1.0     0.500000     0.500000     0.244501    Uiso  ? Co
   Co8        1.0     0.500000     -0.000000     0.755499    Uiso  ? Co
   Co9        1.0     -0.000000     0.500000     0.755499    Uiso  ? Co
   Co10       1.0     0.500000     0.500000     0.755499    Uiso  ? Co
   Ni1        1.0     0.000000     -0.000000     0.000000    Uiso  ? Ni
