
#======================================================================
# CRYSTAL DATA
#----------------------------------------------------------------------
data_VESTA_phase_1

_chemical_name_common                  'Sm9 Co27'
_cell_length_a                         5.003323
_cell_length_b                         5.003323
_cell_length_c                         24.733423
_cell_angle_alpha                      90.000000
_cell_angle_beta                       90.000000
_cell_angle_gamma                      120.000000
_cell_volume                           536.206353
_space_group_name_H-M_alt              'P 1'
_space_group_IT_number                 1

loop_
_space_group_symop_operation_xyz
   'x, y, z'

loop_
   _atom_site_label
   _atom_site_occupancy
   _atom_site_fract_x
   _atom_site_fract_y
   _atom_site_fract_z
   _atom_site_adp_type
   _atom_site_U_iso_or_equiv
   _atom_site_type_symbol
   Sm1        1.0     0.000000     0.000000     0.000313    Uiso  ? Sm
   Sm2        1.0     0.666667     0.333333     0.333333    Uiso  ? Sm
   Sm3        1.0     0.333333     0.666667     0.666354    Uiso  ? Sm
   Sm4        1.0     0.666667     0.333333     0.193771    Uiso  ? Sm
   Sm5        1.0     0.000000     0.000000     0.139943    Uiso  ? Sm
   Sm6        1.0     0.333333     0.666667     0.526724    Uiso  ? Sm
   Sm7        1.0     0.666667     0.333333     0.472896    Uiso  ? Sm
   Sm8        1.0     0.000000     0.000000     0.860969    Uiso  ? Sm
   Sm9        1.0     0.333333     0.666667     0.805697    Uiso  ? Sm
   Co1        1.0     0.333333     0.666667     0.167287    Uiso  ? Co
   Co2        1.0     0.000000     0.000000     0.499380    Uiso  ? Co
   Co3        1.0     0.333333     0.666667     0.332519    Uiso  ? Co
   Co4        1.0     0.333333     0.666667     0.000490    Uiso  ? Co
   Co5        1.0     0.000000     0.000000     0.666177    Uiso  ? Co
   Co6        1.0     0.000000     0.000000     0.334147    Uiso  ? Co
   Co7        1.0     0.666667     0.333333     0.001210    Uiso  ? Co
   Co8        1.0     0.666667     0.333333     0.665456    Uiso  ? Co
   Co9        1.0     0.666594     0.833297     0.253377    Uiso  ? Co
   Co10       1.0     0.166703     0.333406     0.253377    Uiso  ? Co
   Co11       1.0     0.166703     0.833297     0.253377    Uiso  ? Co
   Co12       1.0     0.002078     0.501039     0.080556    Uiso  ? Co
   Co13       1.0     0.498961    -0.002078     0.080556    Uiso  ? Co
   Co14       1.0     0.498961     0.501039     0.080556    Uiso  ? Co
   Co15       1.0     0.331256     0.165628     0.586110    Uiso  ? Co
   Co16       1.0     0.834372     0.668744     0.586110    Uiso  ? Co
   Co17       1.0     0.834372     0.165628     0.586110    Uiso  ? Co
   Co18       1.0     0.666739     0.833370     0.413290    Uiso  ? Co
   Co19       1.0     0.166630     0.333261     0.413290    Uiso  ? Co
   Co20       1.0     0.166630     0.833370     0.413290    Uiso  ? Co
   Co21       1.0     0.997317     0.498659     0.920992    Uiso  ? Co
   Co22       1.0     0.501341     0.002683     0.920992    Uiso  ? Co
   Co23       1.0     0.501341     0.498659     0.920992    Uiso  ? Co
   Co24       1.0     0.336016     0.168008     0.745675    Uiso  ? Co
   Co25       1.0     0.831992     0.663984     0.745675    Uiso  ? Co
   Co26       1.0     0.831992     0.168008     0.745675    Uiso  ? Co
   Ni1        1.0     0.666667     0.333333     0.833333    Uiso  ? Ni
