
#======================================================================
# CRYSTAL DATA
#----------------------------------------------------------------------
data_VESTA_phase_1

_chemical_name_common                  'Sm2 Co10                              '
_cell_length_a                         5.010440
_cell_length_b                         5.010440
_cell_length_c                         7.883772
_cell_angle_alpha                      90.000000
_cell_angle_beta                       90.000000
_cell_angle_gamma                      121.637634
_cell_volume                           168.504117
_space_group_name_H-M_alt              'P 1'
_space_group_IT_number                 1

loop_
_space_group_symop_operation_xyz
   'x, y, z'

loop_
   _atom_site_label
   _atom_site_occupancy
   _atom_site_fract_x
   _atom_site_fract_y
   _atom_site_fract_z
   _atom_site_adp_type
   _atom_site_U_iso_or_equiv
   _atom_site_type_symbol
   Sm1        1.0     0.000000     0.000000     0.002087    Uiso  ? Sm
   Sm2        1.0     0.000000     0.000000     0.497913    Uiso  ? Sm
   Co1        1.0     0.325380     0.674620    -0.000685    Uiso  ? Co
   Co2        1.0     0.674620     0.325380    -0.000685    Uiso  ? Co
   Co3        1.0     0.325380     0.674620     0.500685    Uiso  ? Co
   Co4        1.0     0.674620     0.325380     0.500685    Uiso  ? Co
   Co5        1.0     0.500000     0.000000     0.250000    Uiso  ? Co
   Co6        1.0     0.000000     0.500000     0.250000    Uiso  ? Co
   Co7        1.0     0.500000     0.000000     0.750000    Uiso  ? Co
   Co8        1.0     0.000000     0.500000     0.750000    Uiso  ? Co
   Co9        1.0     0.500000     0.500000     0.750000    Uiso  ? Co
   Ni1        1.0     0.500000     0.500000     0.250000    Uiso  ? Ni
