
#======================================================================
# CRYSTAL DATA
#----------------------------------------------------------------------
data_VESTA_phase_1

_chemical_name_common                  'Sm6 Co51                              '
_cell_length_a                         8.344687
_cell_length_b                         8.344687
_cell_length_c                         12.131252
_cell_angle_alpha                      90.000000
_cell_angle_beta                       90.000000
_cell_angle_gamma                      120.000000
_cell_volume                           731.570892
_space_group_name_H-M_alt              'P 1'
_space_group_IT_number                 1

loop_
_space_group_symop_operation_xyz
   'x, y, z'

loop_
   _atom_site_label
   _atom_site_occupancy
   _atom_site_fract_x
   _atom_site_fract_y
   _atom_site_fract_z
   _atom_site_adp_type
   _atom_site_U_iso_or_equiv
   _atom_site_type_symbol
   Sm1        1.0     0.333333     0.666667     0.010690    Uiso  ? Sm
   Sm2        1.0     0.666667     0.333333    -0.009159    Uiso  ? Sm
   Sm3        1.0     0.333333     0.666667     0.322345    Uiso  ? Sm
   Sm4        1.0     0.000000     0.000000     0.343892    Uiso  ? Sm
   Sm5        1.0     0.000000     0.000000     0.655304    Uiso  ? Sm
   Sm6        1.0     0.666667     0.333333     0.678177    Uiso  ? Sm
   Co1        1.0     0.000000     0.000000     0.095751    Uiso  ? Co
   Co2        1.0     0.666667     0.333333     0.432320    Uiso  ? Co
   Co3        1.0     0.333333     0.666667     0.570481    Uiso  ? Co
   Co4        1.0     0.333333     0.666667     0.762421    Uiso  ? Co
   Co5        1.0     0.000000     0.000000     0.903972    Uiso  ? Co
   Co6        1.0     0.834435     0.165565     0.166708    Uiso  ? Co
   Co7        1.0     0.331130     0.165565     0.166708    Uiso  ? Co
   Co8        1.0     0.834435     0.668870     0.166708    Uiso  ? Co
   Co9        1.0     0.499804     0.500196     0.500046    Uiso  ? Co
   Co10       1.0     0.000393     0.500196     0.500046    Uiso  ? Co
   Co11       1.0     0.499804    -0.000393     0.500046    Uiso  ? Co
   Co12       1.0     0.166527     0.333053     0.833283    Uiso  ? Co
   Co13       1.0     0.166527     0.833473     0.833283    Uiso  ? Co
   Co14       1.0     0.666947     0.833473     0.833283    Uiso  ? Co
   Co15       1.0    -0.000046     0.713250    -0.000186    Uiso  ? Co
   Co16       1.0    -0.000046     0.286704    -0.000186    Uiso  ? Co
   Co17       1.0     0.286750     0.000046    -0.000186    Uiso  ? Co
   Co18       1.0     0.286750     0.286704    -0.000186    Uiso  ? Co
   Co19       1.0     0.713296     0.713250    -0.000186    Uiso  ? Co
   Co20       1.0     0.713296     0.000046    -0.000186    Uiso  ? Co
   Co21       1.0     0.381378     0.333109     0.333358    Uiso  ? Co
   Co22       1.0     0.381378     0.048268     0.333358    Uiso  ? Co
   Co23       1.0     0.666891     0.048268     0.333358    Uiso  ? Co
   Co24       1.0     0.666891     0.618622     0.333358    Uiso  ? Co
   Co25       1.0     0.951732     0.333109     0.333358    Uiso  ? Co
   Co26       1.0     0.951732     0.618622     0.333358    Uiso  ? Co
   Co27       1.0     0.046946     0.666715     0.666560    Uiso  ? Co
   Co28       1.0     0.046946     0.380232     0.666560    Uiso  ? Co
   Co29       1.0     0.333285     0.953053     0.666560    Uiso  ? Co
   Co30       1.0     0.333285     0.380232     0.666560    Uiso  ? Co
   Co31       1.0     0.619768     0.666715     0.666560    Uiso  ? Co
   Co32       1.0     0.619768     0.953053     0.666560    Uiso  ? Co
   Co33       1.0     0.996510     0.498255     0.154946    Uiso  ? Co
   Co34       1.0     0.501745     0.003490     0.154946    Uiso  ? Co
   Co35       1.0     0.501745     0.498255     0.154946    Uiso  ? Co
   Co36       1.0     0.670240     0.835119     0.179072    Uiso  ? Co
   Co37       1.0     0.164881     0.329761     0.179072    Uiso  ? Co
   Co38       1.0     0.164881     0.835119     0.179072    Uiso  ? Co
   Co39       1.0     0.662213     0.831106     0.486480    Uiso  ? Co
   Co40       1.0     0.168894     0.337787     0.486480    Uiso  ? Co
   Co41       1.0     0.168894     0.831106     0.486480    Uiso  ? Co
   Co42       1.0     0.337999     0.169000     0.513095    Uiso  ? Co
   Co43       1.0     0.831000     0.662001     0.513095    Uiso  ? Co
   Co44       1.0     0.831000     0.169000     0.513095    Uiso  ? Co
   Co45       1.0     0.328900     0.164451     0.820403    Uiso  ? Co
   Co46       1.0     0.835549     0.671100     0.820403    Uiso  ? Co
   Co47       1.0     0.835549     0.164451     0.820403    Uiso  ? Co
   Co48       1.0     0.004384     0.502192     0.846011    Uiso  ? Co
   Co49       1.0     0.497808     0.995616     0.846011    Uiso  ? Co
   Co50       1.0     0.497808     0.502192     0.846011    Uiso  ? Co
   Ni1        1.0     0.666667     0.333333     0.235291    Uiso  ? Ni
