
#======================================================================
# CRYSTAL DATA
#----------------------------------------------------------------------
data_VESTA_phase_1

_chemical_name_common                  'Sm9 Co27'
_cell_length_a                         5.011605
_cell_length_b                         5.011605
_cell_length_c                         24.653986
_cell_angle_alpha                      90.000000
_cell_angle_beta                       90.000000
_cell_angle_gamma                      120.000000
_cell_volume                           536.255065
_space_group_name_H-M_alt              'P 1'
_space_group_IT_number                 1

loop_
_space_group_symop_operation_xyz
   'x, y, z'

loop_
   _atom_site_label
   _atom_site_occupancy
   _atom_site_fract_x
   _atom_site_fract_y
   _atom_site_fract_z
   _atom_site_adp_type
   _atom_site_U_iso_or_equiv
   _atom_site_type_symbol
   Sm1        1.0     0.000000     0.000000     0.000043    Uiso  ? Sm
   Sm2        1.0     0.666667     0.333333     0.333349    Uiso  ? Sm
   Sm3        1.0     0.333333     0.666667     0.666555    Uiso  ? Sm
   Sm4        1.0     0.666667     0.333333     0.193671    Uiso  ? Sm
   Sm5        1.0     0.000000     0.000000     0.139719    Uiso  ? Sm
   Sm6        1.0     0.333333     0.666667     0.526939    Uiso  ? Sm
   Sm7        1.0     0.666667     0.333333     0.473127    Uiso  ? Sm
   Sm8        1.0     0.000000     0.000000     0.860367    Uiso  ? Sm
   Sm9        1.0     0.333333     0.666667     0.806205    Uiso  ? Sm
   Co1        1.0     0.333333     0.666667     0.166698    Uiso  ? Co
   Co2        1.0     0.000000     0.000000     0.500015    Uiso  ? Co
   Co3        1.0     0.666667     0.333333     0.833983    Uiso  ? Co
   Co4        1.0     0.333333     0.666667     0.332618    Uiso  ? Co
   Co5        1.0     0.333333     0.666667     0.000730    Uiso  ? Co
   Co6        1.0     0.000000     0.000000     0.666488    Uiso  ? Co
   Co7        1.0     0.000000     0.000000     0.334083    Uiso  ? Co
   Co8        1.0     0.666667     0.333333     0.999207    Uiso  ? Co
   Co9        1.0     0.666382     0.833191     0.253209    Uiso  ? Co
   Co10       1.0     0.166809     0.333618     0.253209    Uiso  ? Co
   Co11       1.0     0.166809     0.833191     0.253209    Uiso  ? Co
   Co12       1.0     0.000149     0.500075     0.080178    Uiso  ? Co
   Co13       1.0     0.499925    -0.000149     0.080178    Uiso  ? Co
   Co14       1.0     0.499925     0.500075     0.080178    Uiso  ? Co
   Co15       1.0     0.332512     0.166256     0.586309    Uiso  ? Co
   Co16       1.0     0.833744     0.667488     0.586309    Uiso  ? Co
   Co17       1.0     0.833744     0.166256     0.586309    Uiso  ? Co
   Co18       1.0     0.667008     0.833504     0.413413    Uiso  ? Co
   Co19       1.0     0.166496     0.332992     0.413413    Uiso  ? Co
   Co20       1.0     0.166496     0.833504     0.413413    Uiso  ? Co
   Co21       1.0     0.000103     0.500052     0.919858    Uiso  ? Co
   Co22       1.0     0.499948     0.999897     0.919858    Uiso  ? Co
   Co23       1.0     0.499948     0.500052     0.919858    Uiso  ? Co
   Co24       1.0     0.334492     0.167246     0.746926    Uiso  ? Co
   Co25       1.0     0.832754     0.665508     0.746926    Uiso  ? Co
   Co26       1.0     0.832754     0.167246     0.746926    Uiso  ? Co
   Ni1        1.0     0.666667     0.333333     0.666526    Uiso  ? Ni
