
#======================================================================
# CRYSTAL DATA
#----------------------------------------------------------------------
data_VESTA_phase_1

_chemical_name_common                  'Sm6 Co51                              '
_cell_length_a                         8.336086
_cell_length_b                         8.336086
_cell_length_c                         12.133537
_cell_angle_alpha                      89.955124
_cell_angle_beta                       90.044876
_cell_angle_gamma                      119.898575
_cell_volume                           730.945907
_space_group_name_H-M_alt              'P 1'
_space_group_IT_number                 1

loop_
_space_group_symop_operation_xyz
   'x, y, z'

loop_
   _atom_site_label
   _atom_site_occupancy
   _atom_site_fract_x
   _atom_site_fract_y
   _atom_site_fract_z
   _atom_site_adp_type
   _atom_site_U_iso_or_equiv
   _atom_site_type_symbol
   Sm1        1.0     0.333604     0.666396     0.010971    Uiso  ? Sm
   Sm2        1.0     0.667091     0.332909     0.989850    Uiso  ? Sm
   Sm3        1.0     0.333100     0.666900     0.322351    Uiso  ? Sm
   Sm4        1.0     0.999553     0.000447     0.343450    Uiso  ? Sm
   Sm5        1.0     0.999975     0.000025     0.655539    Uiso  ? Sm
   Sm6        1.0     0.666695     0.333305     0.677954    Uiso  ? Sm
   Co1        1.0     0.000023     0.999977     0.095711    Uiso  ? Co
   Co2        1.0     0.666659     0.333341     0.237640    Uiso  ? Co
   Co3        1.0     0.666941     0.333059     0.429223    Uiso  ? Co
   Co4        1.0     0.333267     0.666733     0.570684    Uiso  ? Co
   Co5        1.0     0.333369     0.666631     0.762473    Uiso  ? Co
   Co6        1.0     0.999827     0.000173     0.904329    Uiso  ? Co
   Co7        1.0     0.333279     0.166631     0.166620    Uiso  ? Co
   Co8        1.0     0.833369     0.666721     0.166620    Uiso  ? Co
   Co9        1.0     0.999648     0.500142     0.500180    Uiso  ? Co
   Co10       1.0     0.499858     0.000352     0.500180    Uiso  ? Co
   Co11       1.0     0.499752     0.500248     0.499917    Uiso  ? Co
   Co12       1.0     0.166814     0.332985     0.833211    Uiso  ? Co
   Co13       1.0     0.166848     0.833152     0.833434    Uiso  ? Co
   Co14       1.0     0.667015     0.833186     0.833211    Uiso  ? Co
   Co15       1.0     0.000592     0.713417     0.000120    Uiso  ? Co
   Co16       1.0     0.000701     0.287525     0.999771    Uiso  ? Co
   Co17       1.0     0.286583     0.999408     0.000120    Uiso  ? Co
   Co18       1.0     0.286108     0.285713     0.999914    Uiso  ? Co
   Co19       1.0     0.714287     0.713892     0.999914    Uiso  ? Co
   Co20       1.0     0.712475     0.999299     0.999771    Uiso  ? Co
   Co21       1.0     0.380304     0.333845     0.333238    Uiso  ? Co
   Co22       1.0     0.380544     0.047590     0.333451    Uiso  ? Co
   Co23       1.0     0.666030     0.046033     0.333525    Uiso  ? Co
   Co24       1.0     0.666155     0.619696     0.333238    Uiso  ? Co
   Co25       1.0     0.953967     0.333970     0.333525    Uiso  ? Co
   Co26       1.0     0.952410     0.619456     0.333451    Uiso  ? Co
   Co27       1.0     0.046916     0.666890     0.666696    Uiso  ? Co
   Co28       1.0     0.047127     0.380407     0.666661    Uiso  ? Co
   Co29       1.0     0.333110     0.953084     0.666696    Uiso  ? Co
   Co30       1.0     0.333506     0.380245     0.666612    Uiso  ? Co
   Co31       1.0     0.619755     0.666494     0.666612    Uiso  ? Co
   Co32       1.0     0.619593     0.952873     0.666661    Uiso  ? Co
   Co33       1.0     0.996891     0.498572     0.153981    Uiso  ? Co
   Co34       1.0     0.501428     0.003109     0.153981    Uiso  ? Co
   Co35       1.0     0.502425     0.497575     0.153736    Uiso  ? Co
   Co36       1.0     0.669663     0.834806     0.179325    Uiso  ? Co
   Co37       1.0     0.165194     0.330337     0.179325    Uiso  ? Co
   Co38       1.0     0.164297     0.835703     0.179649    Uiso  ? Co
   Co39       1.0     0.661910     0.831256     0.487022    Uiso  ? Co
   Co40       1.0     0.168744     0.338090     0.487022    Uiso  ? Co
   Co41       1.0     0.168615     0.831385     0.486948    Uiso  ? Co
   Co42       1.0     0.337924     0.169290     0.512616    Uiso  ? Co
   Co43       1.0     0.830710     0.662076     0.512616    Uiso  ? Co
   Co44       1.0     0.830983     0.169017     0.513142    Uiso  ? Co
   Co45       1.0     0.328794     0.164118     0.820854    Uiso  ? Co
   Co46       1.0     0.835882     0.671206     0.820854    Uiso  ? Co
   Co47       1.0     0.835717     0.164283     0.820343    Uiso  ? Co
   Co48       1.0     0.004875     0.502152     0.846140    Uiso  ? Co
   Co49       1.0     0.497848     0.995125     0.846140    Uiso  ? Co
   Co50       1.0     0.497968     0.502032     0.846217    Uiso  ? Co
   Ni1        1.0     0.833283     0.166717     0.166559    Uiso  ? Ni
