
#======================================================================
# CRYSTAL DATA
#----------------------------------------------------------------------
data_VESTA_phase_1

_chemical_name_common                  'Sm6 Co51                              '
_cell_length_a                         8.295952
_cell_length_b                         8.295867
_cell_length_c                         12.102547
_cell_angle_alpha                      90.000534
_cell_angle_beta                       89.999039
_cell_angle_gamma                      119.999352
_cell_volume                           721.337047
_space_group_name_H-M_alt              'P 1'
_space_group_IT_number                 1

loop_
_space_group_symop_operation_xyz
   'x, y, z'

loop_
   _atom_site_label
   _atom_site_occupancy
   _atom_site_fract_x
   _atom_site_fract_y
   _atom_site_fract_z
   _atom_site_adp_type
   _atom_site_U_iso_or_equiv
   _atom_site_type_symbol
   Sm1        1.0     0.333323     0.666667     0.013246    Uiso  ? Sm
   Sm2        1.0     0.666670     0.333335    -0.012164    Uiso  ? Sm
   Sm3        1.0    -0.000001     0.000001     0.344710    Uiso  ? Sm
   Sm4        1.0     0.000001     0.000002     0.655089    Uiso  ? Sm
   Sm5        1.0     0.666669     0.333335     0.676407    Uiso  ? Sm
   Co1        1.0    -0.000002     0.000002     0.097817    Uiso  ? Co
   Co2        1.0     0.666666     0.333334     0.237029    Uiso  ? Co
   Co3        1.0     0.666665     0.333334     0.428046    Uiso  ? Co
   Co4        1.0     0.333333     0.666668     0.566665    Uiso  ? Co
   Co5        1.0     0.333329     0.666667     0.761588    Uiso  ? Co
   Co6        1.0    -0.000006     0.000000     0.904452    Uiso  ? Co
   Co7        1.0     0.834834     0.165168     0.167473    Uiso  ? Co
   Co8        1.0     0.330331     0.165166     0.167471    Uiso  ? Co
   Co9        1.0     0.834836     0.669667     0.167471    Uiso  ? Co
   Co10       1.0     0.499268     0.500735     0.498319    Uiso  ? Co
   Co11       1.0     0.001452     0.500726     0.498321    Uiso  ? Co
   Co12       1.0     0.499273    -0.001455     0.498321    Uiso  ? Co
   Co13       1.0     0.166714     0.333441     0.833029    Uiso  ? Co
   Co14       1.0     0.166718     0.833279     0.833027    Uiso  ? Co
   Co15       1.0     0.666555     0.833279     0.833029    Uiso  ? Co
   Co16       1.0     0.000975     0.714011     0.001091    Uiso  ? Co
   Co17       1.0     0.000975     0.286969     0.001094    Uiso  ? Co
   Co18       1.0     0.285980    -0.000979     0.001091    Uiso  ? Co
   Co19       1.0     0.285981     0.286967     0.001094    Uiso  ? Co
   Co20       1.0     0.713032     0.714015     0.001094    Uiso  ? Co
   Co21       1.0     0.713033    -0.000977     0.001094    Uiso  ? Co
   Co22       1.0     0.377208     0.338451     0.331794    Uiso  ? Co
   Co23       1.0     0.377208     0.038749     0.331794    Uiso  ? Co
   Co24       1.0     0.661545     0.038754     0.331794    Uiso  ? Co
   Co25       1.0     0.661544     0.622786     0.331795    Uiso  ? Co
   Co26       1.0     0.961249     0.338458     0.331793    Uiso  ? Co
   Co27       1.0     0.961253     0.622792     0.331792    Uiso  ? Co
   Co28       1.0     0.046041     0.667343     0.665251    Uiso  ? Co
   Co29       1.0     0.046039     0.378700     0.665253    Uiso  ? Co
   Co30       1.0     0.332658     0.953958     0.665253    Uiso  ? Co
   Co31       1.0     0.332655     0.378704     0.665251    Uiso  ? Co
   Co32       1.0     0.621300     0.667344     0.665251    Uiso  ? Co
   Co33       1.0     0.621301     0.953962     0.665251    Uiso  ? Co
   Co34       1.0    -0.007985     0.496008     0.151690    Uiso  ? Co
   Co35       1.0     0.503988     0.007978     0.151693    Uiso  ? Co
   Co36       1.0     0.503986     0.496017     0.151695    Uiso  ? Co
   Co37       1.0     0.658032     0.829018     0.185572    Uiso  ? Co
   Co38       1.0     0.170980     0.341969     0.185571    Uiso  ? Co
   Co39       1.0     0.170976     0.829018     0.185564    Uiso  ? Co
   Co40       1.0     0.654504     0.827254     0.481347    Uiso  ? Co
   Co41       1.0     0.172747     0.345499     0.481346    Uiso  ? Co
   Co42       1.0     0.172751     0.827247     0.481342    Uiso  ? Co
   Co43       1.0     0.337568     0.168785     0.511221    Uiso  ? Co
   Co44       1.0     0.831216     0.662434     0.511217    Uiso  ? Co
   Co45       1.0     0.831217     0.168785     0.511220    Uiso  ? Co
   Co46       1.0     0.329415     0.164709     0.821130    Uiso  ? Co
   Co47       1.0     0.835286     0.670579     0.821131    Uiso  ? Co
   Co48       1.0     0.835285     0.164713     0.821133    Uiso  ? Co
   Co49       1.0     0.004448     0.502227     0.844739    Uiso  ? Co
   Co50       1.0     0.497768     0.995547     0.844738    Uiso  ? Co
   Co51       1.0     0.497767     0.502228     0.844739    Uiso  ? Co
   Ni1        1.0     0.333445     0.666629     0.354741    Uiso  ? Ni
