
#======================================================================
# CRYSTAL DATA
#----------------------------------------------------------------------
data_VESTA_phase_1

_chemical_name_common                  'Sm9 Co27                              '
_cell_length_a                         5.058351
_cell_length_b                         5.058351
_cell_length_c                         24.460138
_cell_angle_alpha                      90.000000
_cell_angle_beta                       90.000000
_cell_angle_gamma                      120.000000
_cell_volume                           542.010214
_space_group_name_H-M_alt              'P 1'
_space_group_IT_number                 1

loop_
_space_group_symop_operation_xyz
   'x, y, z'

loop_
   _atom_site_label
   _atom_site_occupancy
   _atom_site_fract_x
   _atom_site_fract_y
   _atom_site_fract_z
   _atom_site_adp_type
   _atom_site_U_iso_or_equiv
   _atom_site_type_symbol
   Sm1        1.0     -0.000000     -0.000000     0.001062    Uiso  ? Sm
   Sm2        1.0     0.666667     0.333333     0.333333    Uiso  ? Sm
   Sm3        1.0     0.333333     0.666667     0.665605    Uiso  ? Sm
   Sm4        1.0     0.666667     0.333333     0.193325    Uiso  ? Sm
   Sm5        1.0     -0.000000     -0.000000     0.140041    Uiso  ? Sm
   Sm6        1.0     0.333333     0.666667     0.526626    Uiso  ? Sm
   Sm7        1.0     0.666667     0.333333     0.473342    Uiso  ? Sm
   Sm8        1.0     -0.000000     -0.000000     0.864107    Uiso  ? Sm
   Sm9        1.0     0.333333     0.666667     0.802559    Uiso  ? Sm
   Co1        1.0     0.333333     0.666667     0.167189    Uiso  ? Co
   Co2        1.0     -0.000000     -0.000000     0.499478    Uiso  ? Co
   Co3        1.0     0.333333     0.666667     0.332472    Uiso  ? Co
   Co4        1.0     0.333333     0.666667     0.001056    Uiso  ? Co
   Co5        1.0     -0.000000     -0.000000     0.665611    Uiso  ? Co
   Co6        1.0     -0.000000     -0.000000     0.334194    Uiso  ? Co
   Co7        1.0     0.666667     0.333333     0.998656    Uiso  ? Co
   Co8        1.0     0.666667     0.333333     0.668011    Uiso  ? Co
   Co9        1.0     0.666629     0.833315     0.253100    Uiso  ? Co
   Co10       1.0     0.166685     0.333371     0.253100    Uiso  ? Co
   Co11       1.0     0.166685     0.833315     0.253100    Uiso  ? Co
   Co12       1.0     0.000715     0.500358     0.080246    Uiso  ? Co
   Co13       1.0     0.499642     0.999285     0.080246    Uiso  ? Co
   Co14       1.0     0.499642     0.500358     0.080246    Uiso  ? Co
   Co15       1.0     0.332618     0.166309     0.586421    Uiso  ? Co
   Co16       1.0     0.833691     0.667382     0.586421    Uiso  ? Co
   Co17       1.0     0.833691     0.166309     0.586421    Uiso  ? Co
   Co18       1.0     0.666704     0.833352     0.413566    Uiso  ? Co
   Co19       1.0     0.166648     0.333296     0.413566    Uiso  ? Co
   Co20       1.0     0.166648     0.833352     0.413566    Uiso  ? Co
   Co21       1.0     0.005285     0.502643     0.919492    Uiso  ? Co
   Co22       1.0     0.497357    -0.005285     0.919492    Uiso  ? Co
   Co23       1.0     0.497357     0.502643     0.919492    Uiso  ? Co
   Co24       1.0     0.328048     0.164024     0.747175    Uiso  ? Co
   Co25       1.0     0.835976     0.671952     0.747175    Uiso  ? Co
   Co26       1.0     0.835976     0.164024     0.747175    Uiso  ? Co
   Ti1        1.0     0.666667     0.333333     0.833333    Uiso  ? Ti
