
#======================================================================
# CRYSTAL DATA
#----------------------------------------------------------------------
data_VESTA_phase_1

_chemical_name_common                  'Sm9 Co27                              '
_cell_length_a                         5.050835
_cell_length_b                         5.050835
_cell_length_c                         24.448740
_cell_angle_alpha                      90.000000
_cell_angle_beta                       90.000000
_cell_angle_gamma                      120.000000
_cell_volume                           540.148904
_space_group_name_H-M_alt              'P 1'
_space_group_IT_number                 1

loop_
_space_group_symop_operation_xyz
   'x, y, z'

loop_
   _atom_site_label
   _atom_site_occupancy
   _atom_site_fract_x
   _atom_site_fract_y
   _atom_site_fract_z
   _atom_site_adp_type
   _atom_site_U_iso_or_equiv
   _atom_site_type_symbol
   Sm1        1.0     -0.000000     -0.000000     0.999370    Uiso  ? Sm
   Sm2        1.0     0.666667     0.333333     0.333286    Uiso  ? Sm
   Sm3        1.0     0.333333     0.666667     0.667252    Uiso  ? Sm
   Sm4        1.0     0.666667     0.333333     0.193336    Uiso  ? Sm
   Sm5        1.0     -0.000000     -0.000000     0.139776    Uiso  ? Sm
   Sm6        1.0     0.333333     0.666667     0.527438    Uiso  ? Sm
   Sm7        1.0     0.666667     0.333333     0.473310    Uiso  ? Sm
   Sm8        1.0     -0.000000     -0.000000     0.858956    Uiso  ? Sm
   Sm9        1.0     0.333333     0.666667     0.805965    Uiso  ? Sm
   Co1        1.0     0.333333     0.666667     0.166518    Uiso  ? Co
   Co2        1.0     -0.000000     -0.000000     0.500047    Uiso  ? Co
   Co3        1.0     0.666667     0.333333     0.832216    Uiso  ? Co
   Co4        1.0     0.333333     0.666667     0.332639    Uiso  ? Co
   Co5        1.0     0.333333     0.666667     0.000331    Uiso  ? Co
   Co6        1.0     -0.000000     -0.000000     0.666408    Uiso  ? Co
   Co7        1.0     -0.000000     -0.000000     0.333693    Uiso  ? Co
   Co8        1.0     0.666667     0.333333     0.999364    Uiso  ? Co
   Co9        1.0     0.666137     0.833069     0.252950    Uiso  ? Co
   Co10       1.0     0.166931     0.333863     0.252950    Uiso  ? Co
   Co11       1.0     0.166931     0.833069     0.252950    Uiso  ? Co
   Co12       1.0     0.000854     0.500427     0.080215    Uiso  ? Co
   Co13       1.0     0.499573     0.999146     0.080215    Uiso  ? Co
   Co14       1.0     0.499573     0.500427     0.080215    Uiso  ? Co
   Co15       1.0     0.328947     0.164473     0.585765    Uiso  ? Co
   Co16       1.0     0.835527     0.671053     0.585765    Uiso  ? Co
   Co17       1.0     0.835527     0.164473     0.585765    Uiso  ? Co
   Co18       1.0     0.667046     0.833523     0.413475    Uiso  ? Co
   Co19       1.0     0.166477     0.332954     0.413475    Uiso  ? Co
   Co20       1.0     0.166477     0.833523     0.413475    Uiso  ? Co
   Co21       1.0     0.999200     0.499600     0.919348    Uiso  ? Co
   Co22       1.0     0.500400     0.000800     0.919348    Uiso  ? Co
   Co23       1.0     0.500400     0.499600     0.919348    Uiso  ? Co
   Co24       1.0     0.326973     0.163486     0.748209    Uiso  ? Co
   Co25       1.0     0.836514     0.673027     0.748209    Uiso  ? Co
   Co26       1.0     0.836514     0.163486     0.748209    Uiso  ? Co
   Ti1        1.0     0.666667     0.333333     0.670210    Uiso  ? Ti
